*SIMULATION OVERVIEW FILE

*DSSAT Cropping System Model Ver. 4.6.1.000 -release      OCT 02, 2017; 13:02:51
                                                                                
*RUN   1        : P07/14                    MZCER046 ANES1986    1              
 MODEL          : MZCER046 - Maize                                              
 EXPERIMENT     : ANES1986 MZ  Analisis a침os de bajo rendimiento Espinal       
 DATA PATH      : C:\DSSAT46\maize\                                             
 TREATMENT  1   : P07/14                    MZCER046                            
                                                                                
                                                                                
 CROP           : Maize            CULTIVAR : DK7088           ECOTYPE :IB0001  
 STARTING DATE  : JUN 14 1986                                                   
 PLANTING DATE  : JUL 14 1986        PLANTS/m2 :  6.2     ROW SPACING :  80.cm  
 WEATHER        : CNAT   1986                                                   
 SOIL           : CCESPI2017     TEXTURE : SL    -   Suelo Espinal Calibraci    
 SOIL INITIAL C : DEPTH:100cm EXTR. H2O: 83.6mm  NO3:100.0kg/ha  NH4: 72.3kg/ha 
 WATER BALANCE  : RAINFED                                                       
 IRRIGATION     : NOT IRRIGATED                                                 
 NITROGEN BAL.  : SOIL-N & N-UPTAKE SIMULATION; NO N-FIXATION                   
 N-FERTILIZER   :      162 kg/ha IN     6 APPLICATIONS                          
 RESIDUE/MANURE : INITIAL :     0 kg/ha ;       0 kg/ha IN     0 APPLICATIONS   
 ENVIRONM. OPT. : DAYL=    0.00  SRAD=    0.00  TMAX=    0.00  TMIN=    0.00    
                  RAIN=    0.00  CO2 =    0.00  DEW =    0.00  WIND=    0.00    
 SIMULATION OPT : WATER   :Y  NITROGEN:Y  N-FIX:N  PHOSPH :N  PESTS  :N         
                  PHOTO   :C  ET      :R  INFIL:S  HYDROL :R  SOM    :G         
                  CO2 347ppm  NSWIT   :1  EVAP :S  SOIL   :2  STEMP  :D         
 MANAGEMENT OPT : PLANTING:R  IRRIG   :N  FERT :D  RESIDUE:R  HARVEST:M         
                  WEATHER :M  TILLAGE :N                                        
                                                                                
*SUMMARY OF SOIL AND GENETIC INPUT PARAMETERS                                   
                                                                                
   SOIL LOWER UPPER   SAT  EXTR  INIT   ROOT   BULK     pH    NO3    NH4    ORG 
  DEPTH LIMIT LIMIT    SW    SW    SW   DIST   DENS                          C  
   cm   cm3/cm3    cm3/cm3    cm3/cm3         g/cm3         ugN/g  ugN/g     %  
------------------------------------------------------------------------------- 
  0-  5 0.160 0.252 0.376 0.092 0.252   1.00   1.69   6.60   8.90   4.51   0.45 
  5- 15 0.160 0.252 0.376 0.092 0.252   1.00   1.69   6.60   8.90   4.51   0.45 
 15- 30 0.160 0.252 0.376 0.092 0.252   1.00   1.69   6.60   8.90   4.51   0.45 
 30- 53 0.120 0.200 0.440 0.080 0.200   0.27   1.40   7.10   5.60   5.04   0.17 
 53- 77 0.120 0.200 0.440 0.080 0.200   0.27   1.40   7.10   5.60   5.04   0.17 
 77-100 0.120 0.200 0.440 0.080 0.200   0.27   1.40   7.10   5.60   5.04   0.17 
                                                                                
TOT-100  13.2  21.6  42.1   8.4  21.6  <--cm   -  kg/ha-->  100.0   72.3  39475 
SOIL ALBEDO    : 0.09      EVAPORATION LIMIT : 6.00         MIN. FACTOR  : 1.00 
RUNOFF CURVE # :76.00      DRAINAGE RATE     : 0.60         FERT. FACTOR : 1.00 
                                                                                
 Maize      CULTIVAR :CI0004-DK7088             ECOTYPE :IB0001                 
 P1     : 229.00  P2     : 0.3000  P5     : 971.00                              
 G2     : 957.00  G3     :  7.500  PHINT  : 45.000                              


*SIMULATED CROP AND SOIL STATUS AT MAIN DEVELOPMENT STAGES

 RUN NO.     1     P07/14                  

        CROP GROWTH     BIOMASS         LEAF   CROP N     STRESS      STRESS                                           
   DATE  AGE STAGE        kg/ha    LAI   NUM  kg/ha  %   H2O  Nitr Phos1 Phos2  RSTG                                   
 ------  --- ----------   -----  -----  ----  ---  ---  ----  ----  ----  ----  ----                                   
 14 JUN    0 Start Sim        0   0.00   0.0    0  0.0  0.00  0.00  0.00  0.00     7
 14 JUL    0 Sowing           0   0.00   0.0    0  0.0  0.00  0.00  0.00  0.00     8
 15 JUL    1 Germinate        0   0.00   0.0    0  0.0  0.00  0.00  0.00  0.00     9
 19 JUL    5 Emergence       25   0.00   2.2    1  4.4  0.00  0.01  0.00  0.00     1
 30 JUL   16 End Juveni     127   0.27   7.8    4  3.3  0.06  0.00  0.00  0.00     2
  6 AUG   23 Floral Ini     441   0.75  11.2   16  3.6  0.25  0.00  0.00  0.00     3
  7 SEP   55 75% Silkin    3966   1.74  22.8   88  2.2  0.54  0.00  0.00  0.00     4
 15 SEP   63 Beg Gr Fil    3940   1.23  22.8   88  2.2  0.91  0.00  0.00  0.00     5
 25 OCT  103 End Gr Fil    5495   0.89  22.8   88  1.6  0.16  0.00  0.00  0.00     6
 28 OCT  106 Maturity      5495   0.89  22.8   88  1.6  0.00  0.00  0.00  0.00    10
 28 OCT  106 Harvest       5495   0.89  22.8   88  1.6  0.00  0.00  0.00  0.00    10


*MAIN GROWTH AND DEVELOPMENT VARIABLES

@     VARIABLE                                         SIMULATED     MEASURED
      --------                                         ---------     --------
      Anthesis day (dap)                                      55          -99
      Physiological maturity day (dap)                       106          -99
      Yield at harvest maturity (kg [dm]/ha)                1395          -99
      Number at maturity (no/m2)                             557          -99
      Unit wt at maturity (g [dm]/unit)                   0.2506          -99
      Number at maturity (no/unit)                         100.9          -99
      Tops weight at maturity (kg [dm]/ha)                  5495          -99
      By-product produced (stalk) at maturity (kg[dm]/ha    4147          -99
      Leaf area index, maximum                              2.17          -99
      Harvest index at maturity                            0.254          -99
      Grain N at maturity (kg/ha)                             24          -99
      Tops N at maturity (kg/ha)                              88          -99
      Stem N at maturity (kg/ha)                              61          -99
      Grain N at maturity (%)                                1.7          -99
      Tops weight at anthesis (kg [dm]/ha)                  3944          -99
      Tops N at anthesis (kg/ha)                              88          -99
      Leaf number per stem at maturity                     22.80          -99
      Emergence day (dap)                                      5          -99


*ENVIRONMENTAL AND STRESS FACTORS

 |-----Development Phase------|--------------------------------------Environment--------------------------------------|-----------------Stress-----------------|
                              |---------------Average--------------|-----Cumulative-----|--------Count of days--------|          (0=Min, 1=Max Stress)         |
                         Time  Temp  Temp  Temp Solar Photop                Evapo    Pot TMIN TMIN TMAX TMAX TMAX RAIN|----Water----|---Nitrogen--|-Phosphorus-|
                         Span   Max   Min  Mean   Rad  [day]    CO2   Rain  Trans     ET   <    <    >    >    >    >   Photo         Photo         Photo
                         days    邂    邂    邂 MJ/m2     hr    ppm     mm     mm     mm  0邂  2邂 30邂 32邂 34邂  0mm  synth Growth  synth Growth  synth Growth
----------------------------------------------------------------------------------------------------------------------------------------------------------------
 Emergence-End Juvenile    11  34.3  20.8  27.6  20.0  24.00  347.2    0.0    5.4   64.4    0    0   10   10    7    0  0.022  0.062  0.002  0.006  0.000  0.000
 End Juvenil-Floral Init    7  34.7  21.3  28.0  18.8  24.00  347.2    0.0   10.0   37.1    0    0    7    7    6    0  0.016  0.222  0.000  0.000  0.000  0.000
 Floral Init-End Lf Grow   32  34.5  22.4  28.4  20.2  22.80  347.3   48.3   89.2  176.8    0    0   32   26   18    9  0.354  0.518  0.000  0.000  0.000  0.000
 End Lf Grth-Beg Grn Fil    8  36.4  23.2  29.8  18.5  15.63  347.3    0.0    7.2   43.3    0    0    8    8    7    0  0.852  0.902  0.000  0.000  0.000  0.000
 Grain Filling Phase       40  31.7  21.9  26.8  18.6   6.39  347.5  294.3  155.4  203.2    0    0   27   13    9   28  0.181  0.187  0.000  0.000  0.000  0.000


 Planting to Harvest      106  33.4  21.9  27.7  19.1  15.68  347.3  372.2  282.3  562.0    0    0   90   69   49   40  0.243  0.316  0.000  0.001  0.000  0.000
----------------------------------------------------------------------------------------------------------------------------------------------------------------


*Resource Productivity
 Growing season length: 106 days 

 Precipitation during growing season       372.2 mm[rain]
   Dry Matter Productivity                  1.48 kg[DM]/m3[rain]          =   14.8 kg[DM]/ha per mm[rain]
   Yield Productivity                       0.37 kg[grain yield]/m3[rain] =    3.7 kg[yield]/ha per mm[rain]

 Evapotranspiration during growing season  282.3 mm[ET]
   Dry Matter Productivity                  1.95 kg[DM]/m3[ET]            =   19.5 kg[DM]/ha per mm[ET]
   Yield Productivity                       0.49 kg[grain yield]/m3[ET]   =    4.9 kg[yield]/ha per mm[ET]

 Transpiration during growing season       161.3 mm[EP]
   Dry Matter Productivity                  3.41 kg[DM]/m3[EP]            =   34.1 kg[DM]/ha per mm[EP]
   Yield Productivity                       0.86 kg[grain yield]/m3[EP]   =    8.6 kg[yield]/ha per mm[EP]

 N applied during growing season            162. kg[N applied]/ha
   Dry Matter Productivity                  33.9 kg[DM]/kg[N applied]
   Yield Productivity                        8.6 kg[yield]/kg[N applied]

 N uptake during growing season               98 kg[N uptake]/ha
   Dry Matter Productivity                  56.1 kg[DM]/kg[N uptake]
   Yield Productivity                       14.2 kg[yield]/kg[N uptake]

--------------------------------------------------------------------------------------------------------------

                     Maize YIELD :     1395 kg/ha    [Dry weight] 

**************************************************************************************************************

*DSSAT Cropping System Model Ver. 4.6.1.000 -release      OCT 02, 2017; 13:02:51
                                                                                
*RUN   2        : P07/19                    MZCER046 ANES1986    2              
 MODEL          : MZCER046 - Maize                                              
 EXPERIMENT     : ANES1986 MZ  Analisis a침os de bajo rendimiento Espinal       
 DATA PATH      : C:\DSSAT46\maize\                                             
 TREATMENT  2   : P07/19                    MZCER046                            
                                                                                
                                                                                
 CROP           : Maize            CULTIVAR : DK7088           ECOTYPE :IB0001  
 STARTING DATE  : JUN 19 1986                                                   
 PLANTING DATE  : JUL 19 1986        PLANTS/m2 :  6.2     ROW SPACING :  80.cm  
 WEATHER        : CNAT   1986                                                   
 SOIL           : CCESPI2017     TEXTURE : SL    -   Suelo Espinal Calibraci    
 SOIL INITIAL C : DEPTH:100cm EXTR. H2O: 83.6mm  NO3:100.0kg/ha  NH4: 72.3kg/ha 
 WATER BALANCE  : RAINFED                                                       
 IRRIGATION     : NOT IRRIGATED                                                 
 NITROGEN BAL.  : SOIL-N & N-UPTAKE SIMULATION; NO N-FIXATION                   
 N-FERTILIZER   :      162 kg/ha IN     6 APPLICATIONS                          
 RESIDUE/MANURE : INITIAL :     0 kg/ha ;       0 kg/ha IN     0 APPLICATIONS   
 ENVIRONM. OPT. : DAYL=    0.00  SRAD=    0.00  TMAX=    0.00  TMIN=    0.00    
                  RAIN=    0.00  CO2 =    0.00  DEW =    0.00  WIND=    0.00    
 SIMULATION OPT : WATER   :Y  NITROGEN:Y  N-FIX:N  PHOSPH :N  PESTS  :N         
                  PHOTO   :C  ET      :R  INFIL:S  HYDROL :R  SOM    :G         
                  CO2 347ppm  NSWIT   :1  EVAP :S  SOIL   :2  STEMP  :D         
 MANAGEMENT OPT : PLANTING:R  IRRIG   :N  FERT :D  RESIDUE:R  HARVEST:M         
                  WEATHER :M  TILLAGE :N                                        
                                                                                
*SUMMARY OF SOIL AND GENETIC INPUT PARAMETERS                                   
                                                                                
   SOIL LOWER UPPER   SAT  EXTR  INIT   ROOT   BULK     pH    NO3    NH4    ORG 
  DEPTH LIMIT LIMIT    SW    SW    SW   DIST   DENS                          C  
   cm   cm3/cm3    cm3/cm3    cm3/cm3         g/cm3         ugN/g  ugN/g     %  
------------------------------------------------------------------------------- 
  0-  5 0.160 0.252 0.376 0.092 0.252   1.00   1.69   6.60   8.90   4.51   0.45 
  5- 15 0.160 0.252 0.376 0.092 0.252   1.00   1.69   6.60   8.90   4.51   0.45 
 15- 30 0.160 0.252 0.376 0.092 0.252   1.00   1.69   6.60   8.90   4.51   0.45 
 30- 53 0.120 0.200 0.440 0.080 0.200   0.27   1.40   7.10   5.60   5.04   0.17 
 53- 77 0.120 0.200 0.440 0.080 0.200   0.27   1.40   7.10   5.60   5.04   0.17 
 77-100 0.120 0.200 0.440 0.080 0.200   0.27   1.40   7.10   5.60   5.04   0.17 
                                                                                
TOT-100  13.2  21.6  42.1   8.4  21.6  <--cm   -  kg/ha-->  100.0   72.3  39475 
SOIL ALBEDO    : 0.09      EVAPORATION LIMIT : 6.00         MIN. FACTOR  : 1.00 
RUNOFF CURVE # :76.00      DRAINAGE RATE     : 0.60         FERT. FACTOR : 1.00 
                                                                                
 Maize      CULTIVAR :CI0004-DK7088             ECOTYPE :IB0001                 
 P1     : 229.00  P2     : 0.3000  P5     : 971.00                              
 G2     : 957.00  G3     :  7.500  PHINT  : 45.000                              


*SIMULATED CROP AND SOIL STATUS AT MAIN DEVELOPMENT STAGES

 RUN NO.     2     P07/19                  

        CROP GROWTH     BIOMASS         LEAF   CROP N     STRESS      STRESS                                           
   DATE  AGE STAGE        kg/ha    LAI   NUM  kg/ha  %   H2O  Nitr Phos1 Phos2  RSTG                                   
 ------  --- ----------   -----  -----  ----  ---  ---  ----  ----  ----  ----  ----                                   
 19 JUN    0 Start Sim        0   0.00   0.0    0  0.0  0.00  0.00  0.00  0.00     7
 19 JUL    0 Sowing           0   0.00   0.0    0  0.0  0.00  0.00  0.00  0.00     8
 20 JUL    1 Germinate        0   0.00   0.0    0  0.0  0.00  0.00  0.00  0.00     9
 24 JUL    5 Emergence       25   0.00   2.2    1  4.4  0.00  0.01  0.00  0.00     1
  4 AUG   16 End Juveni     156   0.32   7.9    5  3.2  0.01  0.00  0.00  0.00     2
 11 AUG   23 Floral Ini     472   0.78  11.4   17  3.6  0.29  0.00  0.00  0.00     3
 12 SEP   55 75% Silkin    3980   1.74  23.4   96  2.4  0.51  0.00  0.00  0.00     4
 20 SEP   63 Beg Gr Fil    3911   1.21  23.4   96  2.4  0.93  0.00  0.00  0.00     5
  1 NOV  105 End Gr Fil    5596   1.10  23.4   96  1.7  0.04  0.00  0.00  0.00     6
  3 NOV  107 Maturity      5596   1.10  23.4   96  1.7  0.00  0.00  0.00  0.00    10
  3 NOV  107 Harvest       5596   1.10  23.4   96  1.7  0.00  0.00  0.00  0.00    10


*MAIN GROWTH AND DEVELOPMENT VARIABLES

@     VARIABLE                                         SIMULATED     MEASURED
      --------                                         ---------     --------
      Anthesis day (dap)                                      55          -99
      Physiological maturity day (dap)                       107          -99
      Yield at harvest maturity (kg [dm]/ha)                1471          -99
      Number at maturity (no/m2)                             501          -99
      Unit wt at maturity (g [dm]/unit)                   0.2939          -99
      Number at maturity (no/unit)                          93.1          -99
      Tops weight at maturity (kg [dm]/ha)                  5596          -99
      By-product produced (stalk) at maturity (kg[dm]/ha    4175          -99
      Leaf area index, maximum                              2.33          -99
      Harvest index at maturity                            0.263          -99
      Grain N at maturity (kg/ha)                             25          -99
      Tops N at maturity (kg/ha)                              96          -99
      Stem N at maturity (kg/ha)                              66          -99
      Grain N at maturity (%)                                1.7          -99
      Tops weight at anthesis (kg [dm]/ha)                  3971          -99
      Tops N at anthesis (kg/ha)                              96          -99
      Leaf number per stem at maturity                     23.44          -99
      Emergence day (dap)                                      5          -99


*ENVIRONMENTAL AND STRESS FACTORS

 |-----Development Phase------|--------------------------------------Environment--------------------------------------|-----------------Stress-----------------|
                              |---------------Average--------------|-----Cumulative-----|--------Count of days--------|          (0=Min, 1=Max Stress)         |
                         Time  Temp  Temp  Temp Solar Photop                Evapo    Pot TMIN TMIN TMAX TMAX TMAX RAIN|----Water----|---Nitrogen--|-Phosphorus-|
                         Span   Max   Min  Mean   Rad  [day]    CO2   Rain  Trans     ET   <    <    >    >    >    >   Photo         Photo         Photo
                         days    邂    邂    邂 MJ/m2     hr    ppm     mm     mm     mm  0邂  2邂 30邂 32邂 34邂  0mm  synth Growth  synth Growth  synth Growth
----------------------------------------------------------------------------------------------------------------------------------------------------------------
 Emergence-End Juvenile    11  34.8  21.1  28.0  19.8  24.00  347.2    0.0    5.4   63.7    0    0   11   11    9    0  0.000  0.012  0.002  0.006  0.000  0.000
 End Juvenil-Floral Init    7  36.1  22.2  29.1  21.9  24.00  347.2    0.0   11.2   45.8    0    0    7    7    7    0  0.135  0.293  0.000  0.001  0.000  0.000
 Floral Init-End Lf Grow   32  34.4  22.5  28.4  19.6  21.58  347.3   48.3   92.7  169.9    0    0   32   26   17    9  0.367  0.484  0.000  0.000  0.000  0.000
 End Lf Grth-Beg Grn Fil    8  37.1  24.3  30.7  21.2  13.81  347.4    0.6    5.9   51.5    0    0    8    8    8    2  0.888  0.926  0.000  0.000  0.000  0.000
 Grain Filling Phase       42  30.7  21.4  26.0  17.9   4.50  347.5  325.2  178.7  195.7    0    0   24    8    4   31  0.063  0.066  0.000  0.000  0.000  0.000


 Planting to Harvest      107  33.2  21.9  27.6  19.1  14.41  347.4  374.4  301.9  563.0    0    0   88   65   47   43  0.210  0.260  0.000  0.001  0.000  0.000
----------------------------------------------------------------------------------------------------------------------------------------------------------------


*Resource Productivity
 Growing season length: 107 days 

 Precipitation during growing season       374.4 mm[rain]
   Dry Matter Productivity                  1.49 kg[DM]/m3[rain]          =   14.9 kg[DM]/ha per mm[rain]
   Yield Productivity                       0.39 kg[grain yield]/m3[rain] =    3.9 kg[yield]/ha per mm[rain]

 Evapotranspiration during growing season  301.9 mm[ET]
   Dry Matter Productivity                  1.85 kg[DM]/m3[ET]            =   18.5 kg[DM]/ha per mm[ET]
   Yield Productivity                       0.49 kg[grain yield]/m3[ET]   =    4.9 kg[yield]/ha per mm[ET]

 Transpiration during growing season       187.9 mm[EP]
   Dry Matter Productivity                  2.98 kg[DM]/m3[EP]            =   29.8 kg[DM]/ha per mm[EP]
   Yield Productivity                       0.78 kg[grain yield]/m3[EP]   =    7.8 kg[yield]/ha per mm[EP]

 N applied during growing season            162. kg[N applied]/ha
   Dry Matter Productivity                  34.5 kg[DM]/kg[N applied]
   Yield Productivity                        9.1 kg[yield]/kg[N applied]

 N uptake during growing season              106 kg[N uptake]/ha
   Dry Matter Productivity                  52.8 kg[DM]/kg[N uptake]
   Yield Productivity                       13.9 kg[yield]/kg[N uptake]

--------------------------------------------------------------------------------------------------------------

                     Maize YIELD :     1471 kg/ha    [Dry weight] 

**************************************************************************************************************

*DSSAT Cropping System Model Ver. 4.6.1.000 -release      OCT 02, 2017; 13:02:51
                                                                                
*RUN   3        : P07/24                    MZCER046 ANES1986    3              
 MODEL          : MZCER046 - Maize                                              
 EXPERIMENT     : ANES1986 MZ  Analisis a침os de bajo rendimiento Espinal       
 DATA PATH      : C:\DSSAT46\maize\                                             
 TREATMENT  3   : P07/24                    MZCER046                            
                                                                                
                                                                                
 CROP           : Maize            CULTIVAR : DK7088           ECOTYPE :IB0001  
 STARTING DATE  : JUN 24 1986                                                   
 PLANTING DATE  : JUL 24 1986        PLANTS/m2 :  6.2     ROW SPACING :  80.cm  
 WEATHER        : CNAT   1986                                                   
 SOIL           : CCESPI2017     TEXTURE : SL    -   Suelo Espinal Calibraci    
 SOIL INITIAL C : DEPTH:100cm EXTR. H2O: 83.6mm  NO3:100.0kg/ha  NH4: 72.3kg/ha 
 WATER BALANCE  : RAINFED                                                       
 IRRIGATION     : NOT IRRIGATED                                                 
 NITROGEN BAL.  : SOIL-N & N-UPTAKE SIMULATION; NO N-FIXATION                   
 N-FERTILIZER   :      162 kg/ha IN     6 APPLICATIONS                          
 RESIDUE/MANURE : INITIAL :     0 kg/ha ;       0 kg/ha IN     0 APPLICATIONS   
 ENVIRONM. OPT. : DAYL=    0.00  SRAD=    0.00  TMAX=    0.00  TMIN=    0.00    
                  RAIN=    0.00  CO2 =    0.00  DEW =    0.00  WIND=    0.00    
 SIMULATION OPT : WATER   :Y  NITROGEN:Y  N-FIX:N  PHOSPH :N  PESTS  :N         
                  PHOTO   :C  ET      :R  INFIL:S  HYDROL :R  SOM    :G         
                  CO2 347ppm  NSWIT   :1  EVAP :S  SOIL   :2  STEMP  :D         
 MANAGEMENT OPT : PLANTING:R  IRRIG   :N  FERT :D  RESIDUE:R  HARVEST:M         
                  WEATHER :M  TILLAGE :N                                        
                                                                                
*SUMMARY OF SOIL AND GENETIC INPUT PARAMETERS                                   
                                                                                
   SOIL LOWER UPPER   SAT  EXTR  INIT   ROOT   BULK     pH    NO3    NH4    ORG 
  DEPTH LIMIT LIMIT    SW    SW    SW   DIST   DENS                          C  
   cm   cm3/cm3    cm3/cm3    cm3/cm3         g/cm3         ugN/g  ugN/g     %  
------------------------------------------------------------------------------- 
  0-  5 0.160 0.252 0.376 0.092 0.252   1.00   1.69   6.60   8.90   4.51   0.45 
  5- 15 0.160 0.252 0.376 0.092 0.252   1.00   1.69   6.60   8.90   4.51   0.45 
 15- 30 0.160 0.252 0.376 0.092 0.252   1.00   1.69   6.60   8.90   4.51   0.45 
 30- 53 0.120 0.200 0.440 0.080 0.200   0.27   1.40   7.10   5.60   5.04   0.17 
 53- 77 0.120 0.200 0.440 0.080 0.200   0.27   1.40   7.10   5.60   5.04   0.17 
 77-100 0.120 0.200 0.440 0.080 0.200   0.27   1.40   7.10   5.60   5.04   0.17 
                                                                                
TOT-100  13.2  21.6  42.1   8.4  21.6  <--cm   -  kg/ha-->  100.0   72.3  39475 
SOIL ALBEDO    : 0.09      EVAPORATION LIMIT : 6.00         MIN. FACTOR  : 1.00 
RUNOFF CURVE # :76.00      DRAINAGE RATE     : 0.60         FERT. FACTOR : 1.00 
                                                                                
 Maize      CULTIVAR :CI0004-DK7088             ECOTYPE :IB0001                 
 P1     : 229.00  P2     : 0.3000  P5     : 971.00                              
 G2     : 957.00  G3     :  7.500  PHINT  : 45.000                              


*SIMULATED CROP AND SOIL STATUS AT MAIN DEVELOPMENT STAGES

 RUN NO.     3     P07/24                  

        CROP GROWTH     BIOMASS         LEAF   CROP N     STRESS      STRESS                                           
   DATE  AGE STAGE        kg/ha    LAI   NUM  kg/ha  %   H2O  Nitr Phos1 Phos2  RSTG                                   
 ------  --- ----------   -----  -----  ----  ---  ---  ----  ----  ----  ----  ----                                   
 24 JUN    0 Start Sim        0   0.00   0.0    0  0.0  0.00  0.00  0.00  0.00     7
 24 JUL    0 Sowing           0   0.00   0.0    0  0.0  0.00  0.00  0.00  0.00     8
 25 JUL    1 Germinate        0   0.00   0.0    0  0.0  0.00  0.00  0.00  0.00     9
 29 JUL    5 Emergence       25   0.00   2.2    1  4.4  0.00  0.01  0.00  0.00     1
  9 AUG   16 End Juveni     145   0.30   8.0    5  3.2  0.06  0.00  0.00  0.00     2
 16 AUG   23 Floral Ini     458   0.77  11.3   17  3.6  0.17  0.00  0.00  0.00     3
 17 SEP   55 75% Silkin    3575   1.56  23.5   87  2.4  0.54  0.00  0.00  0.00     4
 25 SEP   63 Beg Gr Fil    3938   1.25  23.5   87  2.2  0.58  0.00  0.00  0.00     5
  6 NOV  105 End Gr Fil    7057   1.21  23.5   89  1.3  0.00  0.00  0.00  0.00     6
  9 NOV  108 Maturity      7057   1.21  23.5   89  1.3  0.00  0.00  0.00  0.00    10
  9 NOV  108 Harvest       7057   1.21  23.5   89  1.3  0.00  0.00  0.00  0.00    10


*MAIN GROWTH AND DEVELOPMENT VARIABLES

@     VARIABLE                                         SIMULATED     MEASURED
      --------                                         ---------     --------
      Anthesis day (dap)                                      55          -99
      Physiological maturity day (dap)                       108          -99
      Yield at harvest maturity (kg [dm]/ha)                3196          -99
      Number at maturity (no/m2)                            1033          -99
      Unit wt at maturity (g [dm]/unit)                   0.3094          -99
      Number at maturity (no/unit)                         166.6          -99
      Tops weight at maturity (kg [dm]/ha)                  7057          -99
      By-product produced (stalk) at maturity (kg[dm]/ha    3911          -99
      Leaf area index, maximum                              2.41          -99
      Harvest index at maturity                            0.453          -99
      Grain N at maturity (kg/ha)                             55          -99
      Tops N at maturity (kg/ha)                              89          -99
      Stem N at maturity (kg/ha)                              34          -99
      Grain N at maturity (%)                                1.7          -99
      Tops weight at anthesis (kg [dm]/ha)                  3568          -99
      Tops N at anthesis (kg/ha)                              87          -99
      Leaf number per stem at maturity                     23.50          -99
      Emergence day (dap)                                      5          -99


*ENVIRONMENTAL AND STRESS FACTORS

 |-----Development Phase------|--------------------------------------Environment--------------------------------------|-----------------Stress-----------------|
                              |---------------Average--------------|-----Cumulative-----|--------Count of days--------|          (0=Min, 1=Max Stress)         |
                         Time  Temp  Temp  Temp Solar Photop                Evapo    Pot TMIN TMIN TMAX TMAX TMAX RAIN|----Water----|---Nitrogen--|-Phosphorus-|
                         Span   Max   Min  Mean   Rad  [day]    CO2   Rain  Trans     ET   <    <    >    >    >    >   Photo         Photo         Photo
                         days    邂    邂    邂 MJ/m2     hr    ppm     mm     mm     mm  0邂  2邂 30邂 32邂 34邂  0mm  synth Growth  synth Growth  synth Growth
----------------------------------------------------------------------------------------------------------------------------------------------------------------
 Emergence-End Juvenile    11  35.1  21.5  28.3  20.2  24.00  347.2    0.0    5.1   65.6    0    0   11   11   10    0  0.000  0.051  0.002  0.006  0.000  0.000
 End Juvenil-Floral Init    7  35.0  21.9  28.4  17.7  24.00  347.2    0.0    8.9   36.7    0    0    7    6    5    0  0.053  0.186  0.001  0.003  0.000  0.000
 Floral Init-End Lf Grow   32  34.9  22.7  28.8  20.5  20.06  347.3   48.3   94.1  182.1    0    0   32   27   19    9  0.406  0.517  0.000  0.000  0.000  0.000
 End Lf Grth-Beg Grn Fil    8  35.2  24.3  29.8  19.8  12.09  347.4   74.6   15.8   44.7    0    0    8    8    6    6  0.658  0.689  0.000  0.000  0.000  0.000
 Grain Filling Phase       42  30.3  21.1  25.7  17.6   3.12  347.5  272.4  182.1  189.6    0    0   22    4    1   30  0.000  0.000  0.000  0.000  0.000  0.000


 Planting to Harvest      108  33.0  22.0  27.5  18.9  13.17  347.4  395.7  317.5  559.6    0    0   86   61   45   46  0.173  0.221  0.000  0.001  0.000  0.000
----------------------------------------------------------------------------------------------------------------------------------------------------------------


*Resource Productivity
 Growing season length: 108 days 

 Precipitation during growing season       395.7 mm[rain]
   Dry Matter Productivity                  1.78 kg[DM]/m3[rain]          =   17.8 kg[DM]/ha per mm[rain]
   Yield Productivity                       0.81 kg[grain yield]/m3[rain] =    8.1 kg[yield]/ha per mm[rain]

 Evapotranspiration during growing season  317.5 mm[ET]
   Dry Matter Productivity                  2.22 kg[DM]/m3[ET]            =   22.2 kg[DM]/ha per mm[ET]
   Yield Productivity                       1.01 kg[grain yield]/m3[ET]   =   10.1 kg[yield]/ha per mm[ET]

 Transpiration during growing season       205.4 mm[EP]
   Dry Matter Productivity                  3.44 kg[DM]/m3[EP]            =   34.4 kg[DM]/ha per mm[EP]
   Yield Productivity                       1.56 kg[grain yield]/m3[EP]   =   15.6 kg[yield]/ha per mm[EP]

 N applied during growing season            162. kg[N applied]/ha
   Dry Matter Productivity                  43.6 kg[DM]/kg[N applied]
   Yield Productivity                       19.7 kg[yield]/kg[N applied]

 N uptake during growing season              111 kg[N uptake]/ha
   Dry Matter Productivity                  63.6 kg[DM]/kg[N uptake]
   Yield Productivity                       28.8 kg[yield]/kg[N uptake]

--------------------------------------------------------------------------------------------------------------

                     Maize YIELD :     3196 kg/ha    [Dry weight] 

**************************************************************************************************************

*DSSAT Cropping System Model Ver. 4.6.1.000 -release      OCT 02, 2017; 13:02:51
                                                                                
*RUN   4        : P07/29                    MZCER046 ANES1986    4              
 MODEL          : MZCER046 - Maize                                              
 EXPERIMENT     : ANES1986 MZ  Analisis a침os de bajo rendimiento Espinal       
 DATA PATH      : C:\DSSAT46\maize\                                             
 TREATMENT  4   : P07/29                    MZCER046                            
                                                                                
                                                                                
 CROP           : Maize            CULTIVAR : DK7088           ECOTYPE :IB0001  
 STARTING DATE  : JUN 29 1986                                                   
 PLANTING DATE  : JUL 29 1986        PLANTS/m2 :  6.2     ROW SPACING :  80.cm  
 WEATHER        : CNAT   1986                                                   
 SOIL           : CCESPI2017     TEXTURE : SL    -   Suelo Espinal Calibraci    
 SOIL INITIAL C : DEPTH:100cm EXTR. H2O: 83.6mm  NO3:100.0kg/ha  NH4: 72.3kg/ha 
 WATER BALANCE  : RAINFED                                                       
 IRRIGATION     : NOT IRRIGATED                                                 
 NITROGEN BAL.  : SOIL-N & N-UPTAKE SIMULATION; NO N-FIXATION                   
 N-FERTILIZER   :      162 kg/ha IN     6 APPLICATIONS                          
 RESIDUE/MANURE : INITIAL :     0 kg/ha ;       0 kg/ha IN     0 APPLICATIONS   
 ENVIRONM. OPT. : DAYL=    0.00  SRAD=    0.00  TMAX=    0.00  TMIN=    0.00    
                  RAIN=    0.00  CO2 =    0.00  DEW =    0.00  WIND=    0.00    
 SIMULATION OPT : WATER   :Y  NITROGEN:Y  N-FIX:N  PHOSPH :N  PESTS  :N         
                  PHOTO   :C  ET      :R  INFIL:S  HYDROL :R  SOM    :G         
                  CO2 347ppm  NSWIT   :1  EVAP :S  SOIL   :2  STEMP  :D         
 MANAGEMENT OPT : PLANTING:R  IRRIG   :N  FERT :D  RESIDUE:R  HARVEST:M         
                  WEATHER :M  TILLAGE :N                                        
                                                                                
*SUMMARY OF SOIL AND GENETIC INPUT PARAMETERS                                   
                                                                                
   SOIL LOWER UPPER   SAT  EXTR  INIT   ROOT   BULK     pH    NO3    NH4    ORG 
  DEPTH LIMIT LIMIT    SW    SW    SW   DIST   DENS                          C  
   cm   cm3/cm3    cm3/cm3    cm3/cm3         g/cm3         ugN/g  ugN/g     %  
------------------------------------------------------------------------------- 
  0-  5 0.160 0.252 0.376 0.092 0.252   1.00   1.69   6.60   8.90   4.51   0.45 
  5- 15 0.160 0.252 0.376 0.092 0.252   1.00   1.69   6.60   8.90   4.51   0.45 
 15- 30 0.160 0.252 0.376 0.092 0.252   1.00   1.69   6.60   8.90   4.51   0.45 
 30- 53 0.120 0.200 0.440 0.080 0.200   0.27   1.40   7.10   5.60   5.04   0.17 
 53- 77 0.120 0.200 0.440 0.080 0.200   0.27   1.40   7.10   5.60   5.04   0.17 
 77-100 0.120 0.200 0.440 0.080 0.200   0.27   1.40   7.10   5.60   5.04   0.17 
                                                                                
TOT-100  13.2  21.6  42.1   8.4  21.6  <--cm   -  kg/ha-->  100.0   72.3  39475 
SOIL ALBEDO    : 0.09      EVAPORATION LIMIT : 6.00         MIN. FACTOR  : 1.00 
RUNOFF CURVE # :76.00      DRAINAGE RATE     : 0.60         FERT. FACTOR : 1.00 
                                                                                
 Maize      CULTIVAR :CI0004-DK7088             ECOTYPE :IB0001                 
 P1     : 229.00  P2     : 0.3000  P5     : 971.00                              
 G2     : 957.00  G3     :  7.500  PHINT  : 45.000                              


*SIMULATED CROP AND SOIL STATUS AT MAIN DEVELOPMENT STAGES

 RUN NO.     4     P07/29                  

        CROP GROWTH     BIOMASS         LEAF   CROP N     STRESS      STRESS                                           
   DATE  AGE STAGE        kg/ha    LAI   NUM  kg/ha  %   H2O  Nitr Phos1 Phos2  RSTG                                   
 ------  --- ----------   -----  -----  ----  ---  ---  ----  ----  ----  ----  ----                                   
 29 JUN    0 Start Sim        0   0.00   0.0    0  0.0  0.00  0.00  0.00  0.00     7
 29 JUL    0 Sowing           0   0.00   0.0    0  0.0  0.00  0.00  0.00  0.00     8
 30 JUL    1 Germinate        0   0.00   0.0    0  0.0  0.00  0.00  0.00  0.00     9
  3 AUG    5 Emergence       25   0.00   2.2    1  4.4  0.00  0.01  0.00  0.00     1
 13 AUG   15 End Juveni     129   0.27   7.7    4  3.3  0.06  0.00  0.00  0.00     2
 20 AUG   22 Floral Ini     450   0.77  10.8   16  3.6  0.11  0.00  0.00  0.00     3
 19 SEP   52 75% Silkin    3218   1.50  22.3   79  2.4  0.55  0.00  0.00  0.00     4
 28 SEP   61 Beg Gr Fil    4078   1.32  22.3   79  1.9  0.30  0.00  0.00  0.00     5
  9 NOV  103 End Gr Fil    8561   1.15  22.3  110  1.3  0.00  0.00  0.00  0.00     6
 11 NOV  105 Maturity      8561   1.15  22.3  110  1.3  0.00  0.00  0.00  0.00    10
 11 NOV  105 Harvest       8561   1.15  22.3  110  1.3  0.00  0.00  0.00  0.00    10


*MAIN GROWTH AND DEVELOPMENT VARIABLES

@     VARIABLE                                         SIMULATED     MEASURED
      --------                                         ---------     --------
      Anthesis day (dap)                                      52          -99
      Physiological maturity day (dap)                       105          -99
      Yield at harvest maturity (kg [dm]/ha)                4594          -99
      Number at maturity (no/m2)                            1480          -99
      Unit wt at maturity (g [dm]/unit)                   0.3105          -99
      Number at maturity (no/unit)                         238.6          -99
      Tops weight at maturity (kg [dm]/ha)                  8561          -99
      By-product produced (stalk) at maturity (kg[dm]/ha    4015          -99
      Leaf area index, maximum                              2.26          -99
      Harvest index at maturity                            0.537          -99
      Grain N at maturity (kg/ha)                             79          -99
      Tops N at maturity (kg/ha)                             110          -99
      Stem N at maturity (kg/ha)                              31          -99
      Grain N at maturity (%)                                1.7          -99
      Tops weight at anthesis (kg [dm]/ha)                  3209          -99
      Tops N at anthesis (kg/ha)                              79          -99
      Leaf number per stem at maturity                     22.30          -99
      Emergence day (dap)                                      5          -99


*ENVIRONMENTAL AND STRESS FACTORS

 |-----Development Phase------|--------------------------------------Environment--------------------------------------|-----------------Stress-----------------|
                              |---------------Average--------------|-----Cumulative-----|--------Count of days--------|          (0=Min, 1=Max Stress)         |
                         Time  Temp  Temp  Temp Solar Photop                Evapo    Pot TMIN TMIN TMAX TMAX TMAX RAIN|----Water----|---Nitrogen--|-Phosphorus-|
                         Span   Max   Min  Mean   Rad  [day]    CO2   Rain  Trans     ET   <    <    >    >    >    >   Photo         Photo         Photo
                         days    邂    邂    邂 MJ/m2     hr    ppm     mm     mm     mm  0邂  2邂 30邂 32邂 34邂  0mm  synth Growth  synth Growth  synth Growth
----------------------------------------------------------------------------------------------------------------------------------------------------------------
 Emergence-End Juvenile    10  36.0  22.3  29.2  19.9  24.00  347.2    0.0    4.0   61.4    0    0   10   10   10    0  0.000  0.061  0.002  0.005  0.000  0.000
 End Juvenil-Floral Init    7  33.1  21.5  27.3  17.7  24.00  347.3   19.6   13.8   34.6    0    0    7    4    2    3  0.035  0.113  0.000  0.000  0.000  0.000
 Floral Init-End Lf Grow   30  35.3  23.1  29.2  20.9  19.08  347.3   29.1   88.0  176.4    0    0   30   27   20    7  0.417  0.522  0.000  0.000  0.000  0.000
 End Lf Grth-Beg Grn Fil    9  33.2  23.0  28.1  17.8  11.23  347.4   96.6   26.4   43.1    0    0    8    7    4    7  0.375  0.398  0.000  0.000  0.000  0.000
 Grain Filling Phase       42  30.3  21.2  25.7  17.5   2.39  347.5  250.4  180.7  188.1    0    0   21    3    1   29  0.000  0.000  0.000  0.000  0.000  0.000


 Planting to Harvest      105  32.9  22.0  27.5  18.9  12.40  347.4  395.7  321.5  542.1    0    0   83   56   41   46  0.154  0.197  0.000  0.001  0.000  0.000
----------------------------------------------------------------------------------------------------------------------------------------------------------------


*Resource Productivity
 Growing season length: 105 days 

 Precipitation during growing season       395.7 mm[rain]
   Dry Matter Productivity                  2.16 kg[DM]/m3[rain]          =   21.6 kg[DM]/ha per mm[rain]
   Yield Productivity                       1.16 kg[grain yield]/m3[rain] =   11.6 kg[yield]/ha per mm[rain]

 Evapotranspiration during growing season  321.5 mm[ET]
   Dry Matter Productivity                  2.66 kg[DM]/m3[ET]            =   26.6 kg[DM]/ha per mm[ET]
   Yield Productivity                       1.43 kg[grain yield]/m3[ET]   =   14.3 kg[yield]/ha per mm[ET]

 Transpiration during growing season       209.3 mm[EP]
   Dry Matter Productivity                  4.09 kg[DM]/m3[EP]            =   40.9 kg[DM]/ha per mm[EP]
   Yield Productivity                       2.19 kg[grain yield]/m3[EP]   =   21.9 kg[yield]/ha per mm[EP]

 N applied during growing season            162. kg[N applied]/ha
   Dry Matter Productivity                  52.8 kg[DM]/kg[N applied]
   Yield Productivity                       28.4 kg[yield]/kg[N applied]

 N uptake during growing season              130 kg[N uptake]/ha
   Dry Matter Productivity                  65.9 kg[DM]/kg[N uptake]
   Yield Productivity                       35.3 kg[yield]/kg[N uptake]

--------------------------------------------------------------------------------------------------------------

                     Maize YIELD :     4594 kg/ha    [Dry weight] 

**************************************************************************************************************

*DSSAT Cropping System Model Ver. 4.6.1.000 -release      OCT 02, 2017; 13:02:51
                                                                                
*RUN   5        : P08/03                    MZCER046 ANES1986    5              
 MODEL          : MZCER046 - Maize                                              
 EXPERIMENT     : ANES1986 MZ  Analisis a침os de bajo rendimiento Espinal       
 DATA PATH      : C:\DSSAT46\maize\                                             
 TREATMENT  5   : P08/03                    MZCER046                            
                                                                                
                                                                                
 CROP           : Maize            CULTIVAR : DK7088           ECOTYPE :IB0001  
 STARTING DATE  : JUL  4 1986                                                   
 PLANTING DATE  : AUG  3 1986        PLANTS/m2 :  6.2     ROW SPACING :  80.cm  
 WEATHER        : CNAT   1986                                                   
 SOIL           : CCESPI2017     TEXTURE : SL    -   Suelo Espinal Calibraci    
 SOIL INITIAL C : DEPTH:100cm EXTR. H2O: 83.6mm  NO3:100.0kg/ha  NH4: 72.3kg/ha 
 WATER BALANCE  : RAINFED                                                       
 IRRIGATION     : NOT IRRIGATED                                                 
 NITROGEN BAL.  : SOIL-N & N-UPTAKE SIMULATION; NO N-FIXATION                   
 N-FERTILIZER   :      162 kg/ha IN     6 APPLICATIONS                          
 RESIDUE/MANURE : INITIAL :     0 kg/ha ;       0 kg/ha IN     0 APPLICATIONS   
 ENVIRONM. OPT. : DAYL=    0.00  SRAD=    0.00  TMAX=    0.00  TMIN=    0.00    
                  RAIN=    0.00  CO2 =    0.00  DEW =    0.00  WIND=    0.00    
 SIMULATION OPT : WATER   :Y  NITROGEN:Y  N-FIX:N  PHOSPH :N  PESTS  :N         
                  PHOTO   :C  ET      :R  INFIL:S  HYDROL :R  SOM    :G         
                  CO2 347ppm  NSWIT   :1  EVAP :S  SOIL   :2  STEMP  :D         
 MANAGEMENT OPT : PLANTING:R  IRRIG   :N  FERT :D  RESIDUE:R  HARVEST:M         
                  WEATHER :M  TILLAGE :N                                        
                                                                                
*SUMMARY OF SOIL AND GENETIC INPUT PARAMETERS                                   
                                                                                
   SOIL LOWER UPPER   SAT  EXTR  INIT   ROOT   BULK     pH    NO3    NH4    ORG 
  DEPTH LIMIT LIMIT    SW    SW    SW   DIST   DENS                          C  
   cm   cm3/cm3    cm3/cm3    cm3/cm3         g/cm3         ugN/g  ugN/g     %  
------------------------------------------------------------------------------- 
  0-  5 0.160 0.252 0.376 0.092 0.252   1.00   1.69   6.60   8.90   4.51   0.45 
  5- 15 0.160 0.252 0.376 0.092 0.252   1.00   1.69   6.60   8.90   4.51   0.45 
 15- 30 0.160 0.252 0.376 0.092 0.252   1.00   1.69   6.60   8.90   4.51   0.45 
 30- 53 0.120 0.200 0.440 0.080 0.200   0.27   1.40   7.10   5.60   5.04   0.17 
 53- 77 0.120 0.200 0.440 0.080 0.200   0.27   1.40   7.10   5.60   5.04   0.17 
 77-100 0.120 0.200 0.440 0.080 0.200   0.27   1.40   7.10   5.60   5.04   0.17 
                                                                                
TOT-100  13.2  21.6  42.1   8.4  21.6  <--cm   -  kg/ha-->  100.0   72.3  39475 
SOIL ALBEDO    : 0.09      EVAPORATION LIMIT : 6.00         MIN. FACTOR  : 1.00 
RUNOFF CURVE # :76.00      DRAINAGE RATE     : 0.60         FERT. FACTOR : 1.00 
                                                                                
 Maize      CULTIVAR :CI0004-DK7088             ECOTYPE :IB0001                 
 P1     : 229.00  P2     : 0.3000  P5     : 971.00                              
 G2     : 957.00  G3     :  7.500  PHINT  : 45.000                              


*SIMULATED CROP AND SOIL STATUS AT MAIN DEVELOPMENT STAGES

 RUN NO.     5     P08/03                  

        CROP GROWTH     BIOMASS         LEAF   CROP N     STRESS      STRESS                                           
   DATE  AGE STAGE        kg/ha    LAI   NUM  kg/ha  %   H2O  Nitr Phos1 Phos2  RSTG                                   
 ------  --- ----------   -----  -----  ----  ---  ---  ----  ----  ----  ----  ----                                   
  4 JUL    0 Start Sim        0   0.00   0.0    0  0.0  0.00  0.00  0.00  0.00     7
  3 AUG    0 Sowing           0   0.00   0.0    0  0.0  0.00  0.00  0.00  0.00     8
  4 AUG    1 Germinate        0   0.00   0.0    0  0.0  0.00  0.00  0.00  0.00     9
  8 AUG    5 Emergence       25   0.00   2.2    1  4.4  0.00  0.01  0.00  0.00     1
 19 AUG   16 End Juveni     144   0.30   7.9    5  3.2  0.05  0.00  0.00  0.00     2
 25 AUG   22 Floral Ini     478   0.80  10.6   17  3.6  0.00  0.00  0.00  0.00     3
 24 SEP   52 75% Silkin    3282   1.46  21.9   69  2.1  0.54  0.00  0.00  0.00     4
  3 OCT   61 Beg Gr Fil    4694   1.46  21.9   69  1.5  0.00  0.00  0.00  0.00     5
 14 NOV  103 End Gr Fil   11423   1.07  21.9  149  1.3  0.00  0.00  0.00  0.00     6
 16 NOV  105 Maturity     11423   1.07  21.9  149  1.3  0.00  0.00  0.00  0.00    10
 16 NOV  105 Harvest      11423   1.07  21.9  149  1.3  0.00  0.00  0.00  0.00    10


*MAIN GROWTH AND DEVELOPMENT VARIABLES

@     VARIABLE                                         SIMULATED     MEASURED
      --------                                         ---------     --------
      Anthesis day (dap)                                      52          -99
      Physiological maturity day (dap)                       105          -99
      Yield at harvest maturity (kg [dm]/ha)                6903          -99
      Number at maturity (no/m2)                            2240          -99
      Unit wt at maturity (g [dm]/unit)                   0.3083          -99
      Number at maturity (no/unit)                         361.2          -99
      Tops weight at maturity (kg [dm]/ha)                 11423          -99
      By-product produced (stalk) at maturity (kg[dm]/ha    4564          -99
      Leaf area index, maximum                              2.04          -99
      Harvest index at maturity                            0.604          -99
      Grain N at maturity (kg/ha)                            119          -99
      Tops N at maturity (kg/ha)                             149          -99
      Stem N at maturity (kg/ha)                              30          -99
      Grain N at maturity (%)                                1.7          -99
      Tops weight at anthesis (kg [dm]/ha)                  3053          -99
      Tops N at anthesis (kg/ha)                              69          -99
      Leaf number per stem at maturity                     21.91          -99
      Emergence day (dap)                                      5          -99


*ENVIRONMENTAL AND STRESS FACTORS

 |-----Development Phase------|--------------------------------------Environment--------------------------------------|-----------------Stress-----------------|
                              |---------------Average--------------|-----Cumulative-----|--------Count of days--------|          (0=Min, 1=Max Stress)         |
                         Time  Temp  Temp  Temp Solar Photop                Evapo    Pot TMIN TMIN TMAX TMAX TMAX RAIN|----Water----|---Nitrogen--|-Phosphorus-|
                         Span   Max   Min  Mean   Rad  [day]    CO2   Rain  Trans     ET   <    <    >    >    >    >   Photo         Photo         Photo
                         days    邂    邂    邂 MJ/m2     hr    ppm     mm     mm     mm  0邂  2邂 30邂 32邂 34邂  0mm  synth Growth  synth Growth  synth Growth
----------------------------------------------------------------------------------------------------------------------------------------------------------------
 Emergence-End Juvenile    11  34.4  21.5  28.0  17.8  24.00  347.2   19.1    9.3   58.9    0    0   11    8    6    2  0.000  0.048  0.002  0.004  0.000  0.000
 End Juvenil-Floral Init    6  33.8  22.0  27.9  21.4  24.00  347.3   11.6   22.1   36.9    0    0    6    5    3    4  0.000  0.000  0.001  0.002  0.000  0.000
 Floral Init-End Lf Grow   30  35.5  23.4  29.5  20.5  17.06  347.4   39.4   80.5  175.4    0    0   30   28   22    8  0.442  0.536  0.000  0.000  0.000  0.000
 End Lf Grth-Beg Grn Fil    9  30.5  20.9  25.7  17.0   9.48  347.4  107.4   39.1   39.1    0    0    5    3    1    6  0.000  0.000  0.000  0.000  0.000  0.000
 Grain Filling Phase       42  30.5  21.5  26.0  17.7   1.35  347.5  218.2  177.7  189.3    0    0   24    4    0   26  0.000  0.000  0.000  0.000  0.000  0.000


 Planting to Harvest      105  32.8  22.1  27.5  18.8  11.26  347.4  395.7  336.7  541.7    0    0   83   55   37   46  0.126  0.158  0.000  0.001  0.000  0.000
----------------------------------------------------------------------------------------------------------------------------------------------------------------


*Resource Productivity
 Growing season length: 105 days 

 Precipitation during growing season       395.7 mm[rain]
   Dry Matter Productivity                  2.89 kg[DM]/m3[rain]          =   28.9 kg[DM]/ha per mm[rain]
   Yield Productivity                       1.74 kg[grain yield]/m3[rain] =   17.4 kg[yield]/ha per mm[rain]

 Evapotranspiration during growing season  336.7 mm[ET]
   Dry Matter Productivity                  3.39 kg[DM]/m3[ET]            =   33.9 kg[DM]/ha per mm[ET]
   Yield Productivity                       2.05 kg[grain yield]/m3[ET]   =   20.5 kg[yield]/ha per mm[ET]

 Transpiration during growing season       221.6 mm[EP]
   Dry Matter Productivity                  5.16 kg[DM]/m3[EP]            =   51.6 kg[DM]/ha per mm[EP]
   Yield Productivity                       3.12 kg[grain yield]/m3[EP]   =   31.2 kg[yield]/ha per mm[EP]

 N applied during growing season            162. kg[N applied]/ha
   Dry Matter Productivity                  70.5 kg[DM]/kg[N applied]
   Yield Productivity                       42.6 kg[yield]/kg[N applied]

 N uptake during growing season              165 kg[N uptake]/ha
   Dry Matter Productivity                  69.2 kg[DM]/kg[N uptake]
   Yield Productivity                       41.8 kg[yield]/kg[N uptake]

--------------------------------------------------------------------------------------------------------------

                     Maize YIELD :     6903 kg/ha    [Dry weight] 

**************************************************************************************************************

*DSSAT Cropping System Model Ver. 4.6.1.000 -release      OCT 02, 2017; 13:02:51
                                                                                
*RUN   6        : P08/08                    MZCER046 ANES1986    6              
 MODEL          : MZCER046 - Maize                                              
 EXPERIMENT     : ANES1986 MZ  Analisis a침os de bajo rendimiento Espinal       
 DATA PATH      : C:\DSSAT46\maize\                                             
 TREATMENT  6   : P08/08                    MZCER046                            
                                                                                
                                                                                
 CROP           : Maize            CULTIVAR : DK7088           ECOTYPE :IB0001  
 STARTING DATE  : JUL  9 1986                                                   
 PLANTING DATE  : AUG  8 1986        PLANTS/m2 :  6.2     ROW SPACING :  80.cm  
 WEATHER        : CNAT   1986                                                   
 SOIL           : CCESPI2017     TEXTURE : SL    -   Suelo Espinal Calibraci    
 SOIL INITIAL C : DEPTH:100cm EXTR. H2O: 83.6mm  NO3:100.0kg/ha  NH4: 72.3kg/ha 
 WATER BALANCE  : RAINFED                                                       
 IRRIGATION     : NOT IRRIGATED                                                 
 NITROGEN BAL.  : SOIL-N & N-UPTAKE SIMULATION; NO N-FIXATION                   
 N-FERTILIZER   :      162 kg/ha IN     6 APPLICATIONS                          
 RESIDUE/MANURE : INITIAL :     0 kg/ha ;       0 kg/ha IN     0 APPLICATIONS   
 ENVIRONM. OPT. : DAYL=    0.00  SRAD=    0.00  TMAX=    0.00  TMIN=    0.00    
                  RAIN=    0.00  CO2 =    0.00  DEW =    0.00  WIND=    0.00    
 SIMULATION OPT : WATER   :Y  NITROGEN:Y  N-FIX:N  PHOSPH :N  PESTS  :N         
                  PHOTO   :C  ET      :R  INFIL:S  HYDROL :R  SOM    :G         
                  CO2 347ppm  NSWIT   :1  EVAP :S  SOIL   :2  STEMP  :D         
 MANAGEMENT OPT : PLANTING:R  IRRIG   :N  FERT :D  RESIDUE:R  HARVEST:M         
                  WEATHER :M  TILLAGE :N                                        
                                                                                
*SUMMARY OF SOIL AND GENETIC INPUT PARAMETERS                                   
                                                                                
   SOIL LOWER UPPER   SAT  EXTR  INIT   ROOT   BULK     pH    NO3    NH4    ORG 
  DEPTH LIMIT LIMIT    SW    SW    SW   DIST   DENS                          C  
   cm   cm3/cm3    cm3/cm3    cm3/cm3         g/cm3         ugN/g  ugN/g     %  
------------------------------------------------------------------------------- 
  0-  5 0.160 0.252 0.376 0.092 0.252   1.00   1.69   6.60   8.90   4.51   0.45 
  5- 15 0.160 0.252 0.376 0.092 0.252   1.00   1.69   6.60   8.90   4.51   0.45 
 15- 30 0.160 0.252 0.376 0.092 0.252   1.00   1.69   6.60   8.90   4.51   0.45 
 30- 53 0.120 0.200 0.440 0.080 0.200   0.27   1.40   7.10   5.60   5.04   0.17 
 53- 77 0.120 0.200 0.440 0.080 0.200   0.27   1.40   7.10   5.60   5.04   0.17 
 77-100 0.120 0.200 0.440 0.080 0.200   0.27   1.40   7.10   5.60   5.04   0.17 
                                                                                
TOT-100  13.2  21.6  42.1   8.4  21.6  <--cm   -  kg/ha-->  100.0   72.3  39475 
SOIL ALBEDO    : 0.09      EVAPORATION LIMIT : 6.00         MIN. FACTOR  : 1.00 
RUNOFF CURVE # :76.00      DRAINAGE RATE     : 0.60         FERT. FACTOR : 1.00 
                                                                                
 Maize      CULTIVAR :CI0004-DK7088             ECOTYPE :IB0001                 
 P1     : 229.00  P2     : 0.3000  P5     : 971.00                              
 G2     : 957.00  G3     :  7.500  PHINT  : 45.000                              


*SIMULATED CROP AND SOIL STATUS AT MAIN DEVELOPMENT STAGES

 RUN NO.     6     P08/08                  

        CROP GROWTH     BIOMASS         LEAF   CROP N     STRESS      STRESS                                           
   DATE  AGE STAGE        kg/ha    LAI   NUM  kg/ha  %   H2O  Nitr Phos1 Phos2  RSTG                                   
 ------  --- ----------   -----  -----  ----  ---  ---  ----  ----  ----  ----  ----                                   
  9 JUL    0 Start Sim        0   0.00   0.0    0  0.0  0.00  0.00  0.00  0.00     7
  8 AUG    0 Sowing           0   0.00   0.0    0  0.0  0.00  0.00  0.00  0.00     8
  9 AUG    1 Germinate        0   0.00   0.0    0  0.0  0.00  0.00  0.00  0.00     9
 13 AUG    5 Emergence       25   0.00   2.1    1  4.4  0.00  0.01  0.00  0.00     1
 24 AUG   16 End Juveni     140   0.29   7.7    5  3.2  0.00  0.00  0.00  0.00     2
 29 AUG   21 Floral Ini     417   0.72  10.2   15  3.7  0.00  0.00  0.00  0.00     3
 27 SEP   50 75% Silkin    3153   1.51  21.1   64  2.0  0.48  0.00  0.00  0.00     4
  6 OCT   59 Beg Gr Fil    4742   1.51  21.1   65  1.4  0.00  0.00  0.00  0.00     5
 17 NOV  101 End Gr Fil   11505   0.98  21.1  149  1.3  0.00  0.00  0.00  0.00     6
 19 NOV  103 Maturity     11505   0.98  21.1  149  1.3  0.00  0.00  0.00  0.00    10
 19 NOV  103 Harvest      11505   0.98  21.1  149  1.3  0.00  0.00  0.00  0.00    10


*MAIN GROWTH AND DEVELOPMENT VARIABLES

@     VARIABLE                                         SIMULATED     MEASURED
      --------                                         ---------     --------
      Anthesis day (dap)                                      50          -99
      Physiological maturity day (dap)                       103          -99
      Yield at harvest maturity (kg [dm]/ha)                6910          -99
      Number at maturity (no/m2)                            2267          -99
      Unit wt at maturity (g [dm]/unit)                   0.3048          -99
      Number at maturity (no/unit)                         365.6          -99
      Tops weight at maturity (kg [dm]/ha)                 11505          -99
      By-product produced (stalk) at maturity (kg[dm]/ha    4634          -99
      Leaf area index, maximum                              1.77          -99
      Harvest index at maturity                            0.601          -99
      Grain N at maturity (kg/ha)                            120          -99
      Tops N at maturity (kg/ha)                             149          -99
      Stem N at maturity (kg/ha)                              30          -99
      Grain N at maturity (%)                                1.7          -99
      Tops weight at anthesis (kg [dm]/ha)                  3060          -99
      Tops N at anthesis (kg/ha)                              63          -99
      Leaf number per stem at maturity                     21.08          -99
      Emergence day (dap)                                      5          -99


*ENVIRONMENTAL AND STRESS FACTORS

 |-----Development Phase------|--------------------------------------Environment--------------------------------------|-----------------Stress-----------------|
                              |---------------Average--------------|-----Cumulative-----|--------Count of days--------|          (0=Min, 1=Max Stress)         |
                         Time  Temp  Temp  Temp Solar Photop                Evapo    Pot TMIN TMIN TMAX TMAX TMAX RAIN|----Water----|---Nitrogen--|-Phosphorus-|
                         Span   Max   Min  Mean   Rad  [day]    CO2   Rain  Trans     ET   <    <    >    >    >    >   Photo         Photo         Photo
                         days    邂    邂    邂 MJ/m2     hr    ppm     mm     mm     mm  0邂  2邂 30邂 32邂 34邂  0mm  synth Growth  synth Growth  synth Growth
----------------------------------------------------------------------------------------------------------------------------------------------------------------
 Emergence-End Juvenile    11  33.1  21.9  27.5  18.4  24.00  347.3   30.3   22.7   59.4    0    0   11    7    3    5  0.000  0.000  0.002  0.005  0.000  0.000
 End Juvenil-Floral Init    5  34.9  22.2  28.6  22.7  24.00  347.3    7.4   16.3   33.7    0    0    5    5    3    2  0.000  0.000  0.001  0.002  0.000  0.000
 Floral Init-End Lf Grow   29  35.3  23.3  29.3  20.1  15.43  347.4   97.0   78.7  166.8    0    0   29   26   20    9  0.395  0.479  0.000  0.000  0.000  0.000
 End Lf Grth-Beg Grn Fil    9  29.8  20.8  25.3  16.9   8.37  347.4   92.7   38.4   38.5    0    0    4    1    1    7  0.000  0.000  0.000  0.000  0.000  0.000
 Grain Filling Phase       42  30.8  21.7  26.2  17.8   0.84  347.5  168.3  174.9  191.4    0    0   25    7    1   23  0.000  0.000  0.000  0.000  0.000  0.000


 Planting to Harvest      103  32.7  22.1  27.4  18.8  10.31  347.4  397.7  338.1  531.5    0    0   81   52   33   47  0.111  0.135  0.000  0.001  0.000  0.000
----------------------------------------------------------------------------------------------------------------------------------------------------------------


*Resource Productivity
 Growing season length: 103 days 

 Precipitation during growing season       397.7 mm[rain]
   Dry Matter Productivity                  2.89 kg[DM]/m3[rain]          =   28.9 kg[DM]/ha per mm[rain]
   Yield Productivity                       1.74 kg[grain yield]/m3[rain] =   17.4 kg[yield]/ha per mm[rain]

 Evapotranspiration during growing season  338.1 mm[ET]
   Dry Matter Productivity                  3.40 kg[DM]/m3[ET]            =   34.0 kg[DM]/ha per mm[ET]
   Yield Productivity                       2.04 kg[grain yield]/m3[ET]   =   20.4 kg[yield]/ha per mm[ET]

 Transpiration during growing season       219.2 mm[EP]
   Dry Matter Productivity                  5.25 kg[DM]/m3[EP]            =   52.5 kg[DM]/ha per mm[EP]
   Yield Productivity                       3.15 kg[grain yield]/m3[EP]   =   31.5 kg[yield]/ha per mm[EP]

 N applied during growing season            162. kg[N applied]/ha
   Dry Matter Productivity                  71.0 kg[DM]/kg[N applied]
   Yield Productivity                       42.7 kg[yield]/kg[N applied]

 N uptake during growing season              164 kg[N uptake]/ha
   Dry Matter Productivity                  70.2 kg[DM]/kg[N uptake]
   Yield Productivity                       42.1 kg[yield]/kg[N uptake]

--------------------------------------------------------------------------------------------------------------

                     Maize YIELD :     6910 kg/ha    [Dry weight] 

**************************************************************************************************************

*DSSAT Cropping System Model Ver. 4.6.1.000 -release      OCT 02, 2017; 13:02:51
                                                                                
*RUN   7        : P08/13                    MZCER046 ANES1986    7              
 MODEL          : MZCER046 - Maize                                              
 EXPERIMENT     : ANES1986 MZ  Analisis a침os de bajo rendimiento Espinal       
 DATA PATH      : C:\DSSAT46\maize\                                             
 TREATMENT  7   : P08/13                    MZCER046                            
                                                                                
                                                                                
 CROP           : Maize            CULTIVAR : DK7088           ECOTYPE :IB0001  
 STARTING DATE  : JUL 14 1986                                                   
 PLANTING DATE  : AUG 13 1986        PLANTS/m2 :  6.2     ROW SPACING :  80.cm  
 WEATHER        : CNAT   1986                                                   
 SOIL           : CCESPI2017     TEXTURE : SL    -   Suelo Espinal Calibraci    
 SOIL INITIAL C : DEPTH:100cm EXTR. H2O: 83.6mm  NO3:100.0kg/ha  NH4: 72.3kg/ha 
 WATER BALANCE  : RAINFED                                                       
 IRRIGATION     : NOT IRRIGATED                                                 
 NITROGEN BAL.  : SOIL-N & N-UPTAKE SIMULATION; NO N-FIXATION                   
 N-FERTILIZER   :      162 kg/ha IN     6 APPLICATIONS                          
 RESIDUE/MANURE : INITIAL :     0 kg/ha ;       0 kg/ha IN     0 APPLICATIONS   
 ENVIRONM. OPT. : DAYL=    0.00  SRAD=    0.00  TMAX=    0.00  TMIN=    0.00    
                  RAIN=    0.00  CO2 =    0.00  DEW =    0.00  WIND=    0.00    
 SIMULATION OPT : WATER   :Y  NITROGEN:Y  N-FIX:N  PHOSPH :N  PESTS  :N         
                  PHOTO   :C  ET      :R  INFIL:S  HYDROL :R  SOM    :G         
                  CO2 347ppm  NSWIT   :1  EVAP :S  SOIL   :2  STEMP  :D         
 MANAGEMENT OPT : PLANTING:R  IRRIG   :N  FERT :D  RESIDUE:R  HARVEST:M         
                  WEATHER :M  TILLAGE :N                                        
                                                                                
*SUMMARY OF SOIL AND GENETIC INPUT PARAMETERS                                   
                                                                                
   SOIL LOWER UPPER   SAT  EXTR  INIT   ROOT   BULK     pH    NO3    NH4    ORG 
  DEPTH LIMIT LIMIT    SW    SW    SW   DIST   DENS                          C  
   cm   cm3/cm3    cm3/cm3    cm3/cm3         g/cm3         ugN/g  ugN/g     %  
------------------------------------------------------------------------------- 
  0-  5 0.160 0.252 0.376 0.092 0.252   1.00   1.69   6.60   8.90   4.51   0.45 
  5- 15 0.160 0.252 0.376 0.092 0.252   1.00   1.69   6.60   8.90   4.51   0.45 
 15- 30 0.160 0.252 0.376 0.092 0.252   1.00   1.69   6.60   8.90   4.51   0.45 
 30- 53 0.120 0.200 0.440 0.080 0.200   0.27   1.40   7.10   5.60   5.04   0.17 
 53- 77 0.120 0.200 0.440 0.080 0.200   0.27   1.40   7.10   5.60   5.04   0.17 
 77-100 0.120 0.200 0.440 0.080 0.200   0.27   1.40   7.10   5.60   5.04   0.17 
                                                                                
TOT-100  13.2  21.6  42.1   8.4  21.6  <--cm   -  kg/ha-->  100.0   72.3  39475 
SOIL ALBEDO    : 0.09      EVAPORATION LIMIT : 6.00         MIN. FACTOR  : 1.00 
RUNOFF CURVE # :76.00      DRAINAGE RATE     : 0.60         FERT. FACTOR : 1.00 
                                                                                
 Maize      CULTIVAR :CI0004-DK7088             ECOTYPE :IB0001                 
 P1     : 229.00  P2     : 0.3000  P5     : 971.00                              
 G2     : 957.00  G3     :  7.500  PHINT  : 45.000                              


*SIMULATED CROP AND SOIL STATUS AT MAIN DEVELOPMENT STAGES

 RUN NO.     7     P08/13                  

        CROP GROWTH     BIOMASS         LEAF   CROP N     STRESS      STRESS                                           
   DATE  AGE STAGE        kg/ha    LAI   NUM  kg/ha  %   H2O  Nitr Phos1 Phos2  RSTG                                   
 ------  --- ----------   -----  -----  ----  ---  ---  ----  ----  ----  ----  ----                                   
 14 JUL    0 Start Sim        0   0.00   0.0    0  0.0  0.00  0.00  0.00  0.00     7
 13 AUG    0 Sowing           0   0.00   0.0    0  0.0  0.00  0.00  0.00  0.00     8
 14 AUG    1 Germinate        0   0.00   0.0    0  0.0  0.00  0.00  0.00  0.00     9
 18 AUG    5 Emergence       25   0.00   2.1    1  4.4  0.00  0.01  0.00  0.00     1
 29 AUG   16 End Juveni     156   0.32   8.0    5  3.2  0.00  0.00  0.00  0.00     2
  3 SEP   21 Floral Ini     436   0.75  10.3   16  3.6  0.00  0.00  0.00  0.00     3
  3 OCT   51 75% Silkin    4061   1.89  21.1   79  1.9  0.37  0.00  0.00  0.00     4
 12 OCT   60 Beg Gr Fil    5907   1.89  21.1   80  1.4  0.00  0.00  0.00  0.00     5
 22 NOV  101 End Gr Fil   13507   1.01  21.1  172  1.3  0.03  0.00  0.00  0.00     6
 25 NOV  104 Maturity     13507   1.01  21.1  172  1.3  0.20  0.00  0.00  0.00    10
 25 NOV  104 Harvest      13507   1.01  21.1  172  1.3  0.00  0.00  0.00  0.00    10


*MAIN GROWTH AND DEVELOPMENT VARIABLES

@     VARIABLE                                         SIMULATED     MEASURED
      --------                                         ---------     --------
      Anthesis day (dap)                                      51          -99
      Physiological maturity day (dap)                       104          -99
      Yield at harvest maturity (kg [dm]/ha)                7798          -99
      Number at maturity (no/m2)                            2644          -99
      Unit wt at maturity (g [dm]/unit)                   0.2949          -99
      Number at maturity (no/unit)                         426.5          -99
      Tops weight at maturity (kg [dm]/ha)                 13507          -99
      By-product produced (stalk) at maturity (kg[dm]/ha    5750          -99
      Leaf area index, maximum                              1.89          -99
      Harvest index at maturity                            0.577          -99
      Grain N at maturity (kg/ha)                            135          -99
      Tops N at maturity (kg/ha)                             172          -99
      Stem N at maturity (kg/ha)                              36          -99
      Grain N at maturity (%)                                1.7          -99
      Tops weight at anthesis (kg [dm]/ha)                  3842          -99
      Tops N at anthesis (kg/ha)                              77          -99
      Leaf number per stem at maturity                     21.14          -99
      Emergence day (dap)                                      5          -99


*ENVIRONMENTAL AND STRESS FACTORS

 |-----Development Phase------|--------------------------------------Environment--------------------------------------|-----------------Stress-----------------|
                              |---------------Average--------------|-----Cumulative-----|--------Count of days--------|          (0=Min, 1=Max Stress)         |
                         Time  Temp  Temp  Temp Solar Photop                Evapo    Pot TMIN TMIN TMAX TMAX TMAX RAIN|----Water----|---Nitrogen--|-Phosphorus-|
                         Span   Max   Min  Mean   Rad  [day]    CO2   Rain  Trans     ET   <    <    >    >    >    >   Photo         Photo         Photo
                         days    邂    邂    邂 MJ/m2     hr    ppm     mm     mm     mm  0邂  2邂 30邂 32邂 34邂  0mm  synth Growth  synth Growth  synth Growth
----------------------------------------------------------------------------------------------------------------------------------------------------------------
 Emergence-End Juvenile    11  34.1  22.2  28.1  21.4  24.00  347.3   18.6   30.9   71.4    0    0   11    9    5    5  0.000  0.000  0.003  0.006  0.000  0.000
 End Juvenil-Floral Init    5  33.8  23.7  28.8  20.3  20.99  347.3    8.4   13.2   29.4    0    0    5    3    3    1  0.000  0.000  0.001  0.002  0.000  0.000
 Floral Init-End Lf Grow   30  34.4  22.7  28.5  19.3  13.21  347.4  131.4   92.6  163.9    0    0   26   24   18   12  0.271  0.371  0.000  0.000  0.000  0.000
 End Lf Grth-Beg Grn Fil    9  30.6  21.5  26.0  17.8   5.79  347.4   83.9   40.2   40.2    0    0    6    1    0    7  0.000  0.000  0.000  0.000  0.000  0.000
 Grain Filling Phase       41  30.9  21.8  26.4  18.2   0.11  347.6  136.3  171.0  189.1    0    0   26    8    1   20  0.004  0.021  0.000  0.000  0.000  0.000


 Planting to Harvest      104  32.5  22.2  27.3  18.8   9.06  347.5  419.7  357.6  531.3    0    0   81   49   29   48  0.087  0.127  0.000  0.001  0.000  0.000
----------------------------------------------------------------------------------------------------------------------------------------------------------------


*Resource Productivity
 Growing season length: 104 days 

 Precipitation during growing season       419.7 mm[rain]
   Dry Matter Productivity                  3.22 kg[DM]/m3[rain]          =   32.2 kg[DM]/ha per mm[rain]
   Yield Productivity                       1.86 kg[grain yield]/m3[rain] =   18.6 kg[yield]/ha per mm[rain]

 Evapotranspiration during growing season  357.6 mm[ET]
   Dry Matter Productivity                  3.78 kg[DM]/m3[ET]            =   37.8 kg[DM]/ha per mm[ET]
   Yield Productivity                       2.18 kg[grain yield]/m3[ET]   =   21.8 kg[yield]/ha per mm[ET]

 Transpiration during growing season       244.0 mm[EP]
   Dry Matter Productivity                  5.54 kg[DM]/m3[EP]            =   55.4 kg[DM]/ha per mm[EP]
   Yield Productivity                       3.20 kg[grain yield]/m3[EP]   =   32.0 kg[yield]/ha per mm[EP]

 N applied during growing season            162. kg[N applied]/ha
   Dry Matter Productivity                  83.4 kg[DM]/kg[N applied]
   Yield Productivity                       48.1 kg[yield]/kg[N applied]

 N uptake during growing season              186 kg[N uptake]/ha
   Dry Matter Productivity                  72.6 kg[DM]/kg[N uptake]
   Yield Productivity                       41.9 kg[yield]/kg[N uptake]

--------------------------------------------------------------------------------------------------------------

                     Maize YIELD :     7798 kg/ha    [Dry weight] 

**************************************************************************************************************

*DSSAT Cropping System Model Ver. 4.6.1.000 -release      OCT 02, 2017; 13:02:52
                                                                                
*RUN   8        : P08/18                    MZCER046 ANES1986    8              
 MODEL          : MZCER046 - Maize                                              
 EXPERIMENT     : ANES1986 MZ  Analisis a침os de bajo rendimiento Espinal       
 DATA PATH      : C:\DSSAT46\maize\                                             
 TREATMENT  8   : P08/18                    MZCER046                            
                                                                                
                                                                                
 CROP           : Maize            CULTIVAR : DK7088           ECOTYPE :IB0001  
 STARTING DATE  : JUL 19 1986                                                   
 PLANTING DATE  : AUG 18 1986        PLANTS/m2 :  6.2     ROW SPACING :  80.cm  
 WEATHER        : CNAT   1986                                                   
 SOIL           : CCESPI2017     TEXTURE : SL    -   Suelo Espinal Calibraci    
 SOIL INITIAL C : DEPTH:100cm EXTR. H2O: 83.6mm  NO3:100.0kg/ha  NH4: 72.3kg/ha 
 WATER BALANCE  : RAINFED                                                       
 IRRIGATION     : NOT IRRIGATED                                                 
 NITROGEN BAL.  : SOIL-N & N-UPTAKE SIMULATION; NO N-FIXATION                   
 N-FERTILIZER   :      162 kg/ha IN     6 APPLICATIONS                          
 RESIDUE/MANURE : INITIAL :     0 kg/ha ;       0 kg/ha IN     0 APPLICATIONS   
 ENVIRONM. OPT. : DAYL=    0.00  SRAD=    0.00  TMAX=    0.00  TMIN=    0.00    
                  RAIN=    0.00  CO2 =    0.00  DEW =    0.00  WIND=    0.00    
 SIMULATION OPT : WATER   :Y  NITROGEN:Y  N-FIX:N  PHOSPH :N  PESTS  :N         
                  PHOTO   :C  ET      :R  INFIL:S  HYDROL :R  SOM    :G         
                  CO2 347ppm  NSWIT   :1  EVAP :S  SOIL   :2  STEMP  :D         
 MANAGEMENT OPT : PLANTING:R  IRRIG   :N  FERT :D  RESIDUE:R  HARVEST:M         
                  WEATHER :M  TILLAGE :N                                        
                                                                                
*SUMMARY OF SOIL AND GENETIC INPUT PARAMETERS                                   
                                                                                
   SOIL LOWER UPPER   SAT  EXTR  INIT   ROOT   BULK     pH    NO3    NH4    ORG 
  DEPTH LIMIT LIMIT    SW    SW    SW   DIST   DENS                          C  
   cm   cm3/cm3    cm3/cm3    cm3/cm3         g/cm3         ugN/g  ugN/g     %  
------------------------------------------------------------------------------- 
  0-  5 0.160 0.252 0.376 0.092 0.252   1.00   1.69   6.60   8.90   4.51   0.45 
  5- 15 0.160 0.252 0.376 0.092 0.252   1.00   1.69   6.60   8.90   4.51   0.45 
 15- 30 0.160 0.252 0.376 0.092 0.252   1.00   1.69   6.60   8.90   4.51   0.45 
 30- 53 0.120 0.200 0.440 0.080 0.200   0.27   1.40   7.10   5.60   5.04   0.17 
 53- 77 0.120 0.200 0.440 0.080 0.200   0.27   1.40   7.10   5.60   5.04   0.17 
 77-100 0.120 0.200 0.440 0.080 0.200   0.27   1.40   7.10   5.60   5.04   0.17 
                                                                                
TOT-100  13.2  21.6  42.1   8.4  21.6  <--cm   -  kg/ha-->  100.0   72.3  39475 
SOIL ALBEDO    : 0.09      EVAPORATION LIMIT : 6.00         MIN. FACTOR  : 1.00 
RUNOFF CURVE # :76.00      DRAINAGE RATE     : 0.60         FERT. FACTOR : 1.00 
                                                                                
 Maize      CULTIVAR :CI0004-DK7088             ECOTYPE :IB0001                 
 P1     : 229.00  P2     : 0.3000  P5     : 971.00                              
 G2     : 957.00  G3     :  7.500  PHINT  : 45.000                              


*SIMULATED CROP AND SOIL STATUS AT MAIN DEVELOPMENT STAGES

 RUN NO.     8     P08/18                  

        CROP GROWTH     BIOMASS         LEAF   CROP N     STRESS      STRESS                                           
   DATE  AGE STAGE        kg/ha    LAI   NUM  kg/ha  %   H2O  Nitr Phos1 Phos2  RSTG                                   
 ------  --- ----------   -----  -----  ----  ---  ---  ----  ----  ----  ----  ----                                   
 19 JUL    0 Start Sim        0   0.00   0.0    0  0.0  0.00  0.00  0.00  0.00     7
 18 AUG    0 Sowing           0   0.00   0.0    0  0.0  0.00  0.00  0.00  0.00     8
 19 AUG    1 Germinate        0   0.00   0.0    0  0.0  0.00  0.00  0.00  0.00     9
 23 AUG    5 Emergence       25   0.00   2.2    1  4.4  0.00  0.01  0.00  0.00     1
  3 SEP   16 End Juveni     168   0.34   8.1    6  3.3  0.00  0.00  0.00  0.00     2
  8 SEP   21 Floral Ini     438   0.75  10.5   16  3.6  0.10  0.00  0.00  0.00     3
  9 OCT   52 75% Silkin    5078   2.38  21.7   99  2.0  0.28  0.00  0.00  0.00     4
 18 OCT   61 Beg Gr Fil    7308   2.38  21.7  100  1.4  0.00  0.00  0.00  0.00     5
 28 NOV  102 End Gr Fil   15466   1.12  21.7  193  1.2  0.10  0.00  0.00  0.00     6
  1 DEC  105 Maturity     15466   1.12  21.7  193  1.2  0.60  0.00  0.00  0.00    10
  1 DEC  105 Harvest      15466   1.12  21.7  193  1.2  0.00  0.00  0.00  0.00    10


*MAIN GROWTH AND DEVELOPMENT VARIABLES

@     VARIABLE                                         SIMULATED     MEASURED
      --------                                         ---------     --------
      Anthesis day (dap)                                      52          -99
      Physiological maturity day (dap)                       105          -99
      Yield at harvest maturity (kg [dm]/ha)                8525          -99
      Number at maturity (no/m2)                            3020          -99
[...]
 WATER BALANCE  : RAINFED                                                       
 IRRIGATION     : NOT IRRIGATED                                                 
 NITROGEN BAL.  : SOIL-N & N-UPTAKE SIMULATION; NO N-FIXATION                   
 N-FERTILIZER   :      162 kg/ha IN     6 APPLICATIONS                          
 RESIDUE/MANURE : INITIAL :     0 kg/ha ;       0 kg/ha IN     0 APPLICATIONS   
 ENVIRONM. OPT. : DAYL=    0.00  SRAD=    0.00  TMAX=    0.00  TMIN=    0.00    
                  RAIN=    0.00  CO2 =    0.00  DEW =    0.00  WIND=    0.00    
 SIMULATION OPT : WATER   :Y  NITROGEN:Y  N-FIX:N  PHOSPH :N  PESTS  :N         
                  PHOTO   :C  ET      :R  INFIL:S  HYDROL :R  SOM    :G         
                  CO2 348ppm  NSWIT   :1  EVAP :S  SOIL   :2  STEMP  :D         
 MANAGEMENT OPT : PLANTING:R  IRRIG   :N  FERT :D  RESIDUE:R  HARVEST:M         
                  WEATHER :M  TILLAGE :N                                        
                                                                                
*SUMMARY OF SOIL AND GENETIC INPUT PARAMETERS                                   
                                                                                
   SOIL LOWER UPPER   SAT  EXTR  INIT   ROOT   BULK     pH    NO3    NH4    ORG 
  DEPTH LIMIT LIMIT    SW    SW    SW   DIST   DENS                          C  
   cm   cm3/cm3    cm3/cm3    cm3/cm3         g/cm3         ugN/g  ugN/g     %  
------------------------------------------------------------------------------- 
  0-  5 0.160 0.252 0.376 0.092 0.252   1.00   1.69   6.60   8.90   4.51   0.45 
  5- 15 0.160 0.252 0.376 0.092 0.252   1.00   1.69   6.60   8.90   4.51   0.45 
 15- 30 0.160 0.252 0.376 0.092 0.252   1.00   1.69   6.60   8.90   4.51   0.45 
 30- 53 0.120 0.200 0.440 0.080 0.200   0.27   1.40   7.10   5.60   5.04   0.17 
 53- 77 0.120 0.200 0.440 0.080 0.200   0.27   1.40   7.10   5.60   5.04   0.17 
 77-100 0.120 0.200 0.440 0.080 0.200   0.27   1.40   7.10   5.60   5.04   0.17 
                                                                                
TOT-100  13.2  21.6  42.1   8.4  21.6  <--cm   -  kg/ha-->  100.0   72.3  39475 
SOIL ALBEDO    : 0.09      EVAPORATION LIMIT : 6.00         MIN. FACTOR  : 1.00 
RUNOFF CURVE # :76.00      DRAINAGE RATE     : 0.60         FERT. FACTOR : 1.00 
                                                                                
 Maize      CULTIVAR :CI0004-DK7088             ECOTYPE :IB0001                 
 P1     : 229.00  P2     : 0.3000  P5     : 971.00                              
 G2     : 957.00  G3     :  7.500  PHINT  : 45.000                              


*SIMULATED CROP AND SOIL STATUS AT MAIN DEVELOPMENT STAGES

 RUN NO.    31     P11/26                  

        CROP GROWTH     BIOMASS         LEAF   CROP N     STRESS      STRESS                                           
   DATE  AGE STAGE        kg/ha    LAI   NUM  kg/ha  %   H2O  Nitr Phos1 Phos2  RSTG                                   
 ------  --- ----------   -----  -----  ----  ---  ---  ----  ----  ----  ----  ----                                   
 26 NOV    0 Start Sim        0   0.00   0.0    0  0.0  0.00  0.00  0.00  0.00     7
 26 DEC    0 Sowing           0   0.00   0.0    0  0.0  0.00  0.00  0.00  0.00     8
 27 DEC    1 Germinate        0   0.00   0.0    0  0.0  0.00  0.00  0.00  0.00     9
 31 DEC    5 Emergence       25   0.00   2.2    1  4.4  0.00  0.01  0.00  0.00     1
 11 JAN   16 End Juveni     139   0.29   7.7    5  3.2  0.00  0.00  0.00  0.00     2
 15 JAN   20 Floral Ini     339   0.61   9.7   12  3.7  0.00  0.00  0.00  0.00     3
 11 FEB   47 75% Silkin    2118   1.07  20.1   51  2.4  0.63  0.00  0.00  0.00     4
 20 FEB   56 Beg Gr Fil    3240   1.03  20.1   51  1.6  0.09  0.00  0.00  0.00     5
 28 MAR   92 End Gr Fil    6283   0.78  20.1   78  1.2  0.25  0.00  0.00  0.00     6
 30 MAR   94 Maturity      6283   0.78  20.1   78  1.2  0.77  0.00  0.00  0.00    10
 30 MAR   94 Harvest       6283   0.78  20.1   78  1.2  0.00  0.00  0.00  0.00    10


*MAIN GROWTH AND DEVELOPMENT VARIABLES

@     VARIABLE                                         SIMULATED     MEASURED
      --------                                         ---------     --------
      Anthesis day (dap)                                      47          -99
      Physiological maturity day (dap)                        94          -99
      Yield at harvest maturity (kg [dm]/ha)                3123          -99
      Number at maturity (no/m2)                            1709          -99
      Unit wt at maturity (g [dm]/unit)                   0.1827          -99
      Number at maturity (no/unit)                         275.7          -99
      Tops weight at maturity (kg [dm]/ha)                  6283          -99
      By-product produced (stalk) at maturity (kg[dm]/ha    3192          -99
      Leaf area index, maximum                              1.53          -99
      Harvest index at maturity                            0.497          -99
      Grain N at maturity (kg/ha)                             56          -99
      Tops N at maturity (kg/ha)                              78          -99
      Stem N at maturity (kg/ha)                              22          -99
      Grain N at maturity (%)                                1.8          -99
      Tops weight at anthesis (kg [dm]/ha)                  2089          -99
      Tops N at anthesis (kg/ha)                              51          -99
      Leaf number per stem at maturity                     20.14          -99
      Emergence day (dap)                                      5          -99


*ENVIRONMENTAL AND STRESS FACTORS

 |-----Development Phase------|--------------------------------------Environment--------------------------------------|-----------------Stress-----------------|
                              |---------------Average--------------|-----Cumulative-----|--------Count of days--------|          (0=Min, 1=Max Stress)         |
                         Time  Temp  Temp  Temp Solar Photop                Evapo    Pot TMIN TMIN TMAX TMAX TMAX RAIN|----Water----|---Nitrogen--|-Phosphorus-|
                         Span   Max   Min  Mean   Rad  [day]    CO2   Rain  Trans     ET   <    <    >    >    >    >   Photo         Photo         Photo
                         days    邂    邂    邂 MJ/m2     hr    ppm     mm     mm     mm  0邂  2邂 30邂 32邂 34邂  0mm  synth Growth  synth Growth  synth Growth
----------------------------------------------------------------------------------------------------------------------------------------------------------------
 Emergence-End Juvenile    11  32.2  23.1  27.6  19.0   0.00  347.8   36.2   26.9   60.7    0    0   10    6    0    3  0.000  0.000  0.002  0.006  0.000  0.000
 End Juvenil-Floral Init    4  33.9  22.9  28.4  21.4   0.00  347.8    0.0    6.7   24.2    0    0    4    4    2    0  0.000  0.000  0.000  0.001  0.000  0.000
 Floral Init-End Lf Grow   27  35.0  23.7  29.3  19.3   0.00  348.0    4.0   46.5  146.8    0    0   27   25   18    4  0.459  0.604  0.000  0.000  0.000  0.000
 End Lf Grth-Beg Grn Fil    9  33.0  23.1  28.1  17.8   0.00  348.1   79.5   30.2   43.6    0    0    7    7    3    3  0.151  0.175  0.000  0.000  0.000  0.000
 Grain Filling Phase       36  34.2  23.8  29.0  20.6   6.71  348.2   94.8  124.7  211.0    0    0   32   30   21   10  0.138  0.229  0.000  0.000  0.000  0.000


 Planting to Harvest       94  34.0  23.5  28.7  19.7   2.87  348.0  219.8  247.1  524.6    0    0   86   77   46   21  0.211  0.293  0.000  0.001  0.000  0.000
----------------------------------------------------------------------------------------------------------------------------------------------------------------


*Resource Productivity
 Growing season length:  94 days 

 Precipitation during growing season       219.8 mm[rain]
   Dry Matter Productivity                  2.86 kg[DM]/m3[rain]          =   28.6 kg[DM]/ha per mm[rain]
   Yield Productivity                       1.42 kg[grain yield]/m3[rain] =   14.2 kg[yield]/ha per mm[rain]

 Evapotranspiration during growing season  247.1 mm[ET]
   Dry Matter Productivity                  2.54 kg[DM]/m3[ET]            =   25.4 kg[DM]/ha per mm[ET]
   Yield Productivity                       1.26 kg[grain yield]/m3[ET]   =   12.6 kg[yield]/ha per mm[ET]

 Transpiration during growing season       151.3 mm[EP]
   Dry Matter Productivity                  4.15 kg[DM]/m3[EP]            =   41.5 kg[DM]/ha per mm[EP]
   Yield Productivity                       2.06 kg[grain yield]/m3[EP]   =   20.6 kg[yield]/ha per mm[EP]

 N applied during growing season            162. kg[N applied]/ha
   Dry Matter Productivity                  38.8 kg[DM]/kg[N applied]
   Yield Productivity                       19.3 kg[yield]/kg[N applied]

 N uptake during growing season               90 kg[N uptake]/ha
   Dry Matter Productivity                  69.8 kg[DM]/kg[N uptake]
   Yield Productivity                       34.7 kg[yield]/kg[N uptake]

--------------------------------------------------------------------------------------------------------------

                     Maize YIELD :     3123 kg/ha    [Dry weight] 

**************************************************************************************************************

*DSSAT Cropping System Model Ver. 4.6.1.000 -release      OCT 02, 2017; 13:02:54
                                                                                
*RUN  32        : P12/31                    MZCER046 ANES1986   32              
 MODEL          : MZCER046 - Maize                                              
 EXPERIMENT     : ANES1986 MZ  Analisis a침os de bajo rendimiento Espinal       
 DATA PATH      : C:\DSSAT46\maize\                                             
 TREATMENT 32   : P12/31                    MZCER046                            
                                                                                
                                                                                
 CROP           : Maize            CULTIVAR : DK7088           ECOTYPE :IB0001  
 STARTING DATE  : DEC  1 1986                                                   
 PLANTING DATE  : DEC 31 1986        PLANTS/m2 :  6.2     ROW SPACING :  80.cm  
 WEATHER        : CNAT   1986                                                   
 SOIL           : CCESPI2017     TEXTURE : SL    -   Suelo Espinal Calibraci    
 SOIL INITIAL C : DEPTH:100cm EXTR. H2O: 83.6mm  NO3:100.0kg/ha  NH4: 72.3kg/ha 
 WATER BALANCE  : RAINFED                                                       
 IRRIGATION     : NOT IRRIGATED                                                 
 NITROGEN BAL.  : SOIL-N & N-UPTAKE SIMULATION; NO N-FIXATION                   
 N-FERTILIZER   :      162 kg/ha IN     6 APPLICATIONS                          
 RESIDUE/MANURE : INITIAL :     0 kg/ha ;       0 kg/ha IN     0 APPLICATIONS   
 ENVIRONM. OPT. : DAYL=    0.00  SRAD=    0.00  TMAX=    0.00  TMIN=    0.00    
                  RAIN=    0.00  CO2 =    0.00  DEW =    0.00  WIND=    0.00    
 SIMULATION OPT : WATER   :Y  NITROGEN:Y  N-FIX:N  PHOSPH :N  PESTS  :N         
                  PHOTO   :C  ET      :R  INFIL:S  HYDROL :R  SOM    :G         
                  CO2 348ppm  NSWIT   :1  EVAP :S  SOIL   :2  STEMP  :D         
 MANAGEMENT OPT : PLANTING:R  IRRIG   :N  FERT :D  RESIDUE:R  HARVEST:M         
                  WEATHER :M  TILLAGE :N                                        
                                                                                
*SUMMARY OF SOIL AND GENETIC INPUT PARAMETERS                                   
                                                                                
   SOIL LOWER UPPER   SAT  EXTR  INIT   ROOT   BULK     pH    NO3    NH4    ORG 
  DEPTH LIMIT LIMIT    SW    SW    SW   DIST   DENS                          C  
   cm   cm3/cm3    cm3/cm3    cm3/cm3         g/cm3         ugN/g  ugN/g     %  
------------------------------------------------------------------------------- 
  0-  5 0.160 0.252 0.376 0.092 0.252   1.00   1.69   6.60   8.90   4.51   0.45 
  5- 15 0.160 0.252 0.376 0.092 0.252   1.00   1.69   6.60   8.90   4.51   0.45 
 15- 30 0.160 0.252 0.376 0.092 0.252   1.00   1.69   6.60   8.90   4.51   0.45 
 30- 53 0.120 0.200 0.440 0.080 0.200   0.27   1.40   7.10   5.60   5.04   0.17 
 53- 77 0.120 0.200 0.440 0.080 0.200   0.27   1.40   7.10   5.60   5.04   0.17 
 77-100 0.120 0.200 0.440 0.080 0.200   0.27   1.40   7.10   5.60   5.04   0.17 
                                                                                
TOT-100  13.2  21.6  42.1   8.4  21.6  <--cm   -  kg/ha-->  100.0   72.3  39475 
SOIL ALBEDO    : 0.09      EVAPORATION LIMIT : 6.00         MIN. FACTOR  : 1.00 
RUNOFF CURVE # :76.00      DRAINAGE RATE     : 0.60         FERT. FACTOR : 1.00 
                                                                                
 Maize      CULTIVAR :CI0004-DK7088             ECOTYPE :IB0001                 
 P1     : 229.00  P2     : 0.3000  P5     : 971.00                              
 G2     : 957.00  G3     :  7.500  PHINT  : 45.000                              


*SIMULATED CROP AND SOIL STATUS AT MAIN DEVELOPMENT STAGES

 RUN NO.    32     P12/31                  

        CROP GROWTH     BIOMASS         LEAF   CROP N     STRESS      STRESS                                           
   DATE  AGE STAGE        kg/ha    LAI   NUM  kg/ha  %   H2O  Nitr Phos1 Phos2  RSTG                                   
 ------  --- ----------   -----  -----  ----  ---  ---  ----  ----  ----  ----  ----                                   
  1 DEC    0 Start Sim        0   0.00   0.0    0  0.0  0.00  0.00  0.00  0.00     7
 31 DEC    0 Sowing           0   0.00   0.0    0  0.0  0.00  0.00  0.00  0.00     8
  1 JAN    1 Germinate        0   0.00   0.0    0  0.0  0.00  0.00  0.00  0.00     9
  5 JAN    5 Emergence       25   0.00   2.2    1  4.4  0.00  0.01  0.00  0.00     1
 16 JAN   16 End Juveni     151   0.31   7.9    5  3.2  0.00  0.00  0.00  0.00     2
 20 JAN   20 Floral Ini     347   0.62   9.8   13  3.7  0.03  0.00  0.00  0.00     3
 17 FEB   48 75% Silkin    2851   1.38  20.2   58  2.0  0.49  0.00  0.00  0.00     4
 25 FEB   56 Beg Gr Fil    4462   1.34  20.2   59  1.3  0.18  0.00  0.00  0.00     5
  2 APR   92 End Gr Fil    8389   0.76  20.2  105  1.3  0.42  0.00  0.00  0.00     6
  5 APR   95 Maturity      8389   0.76  20.2  105  1.3  0.00  0.00  0.00  0.00    10
  5 APR   95 Harvest       8389   0.76  20.2  105  1.3  0.00  0.00  0.00  0.00    10


*MAIN GROWTH AND DEVELOPMENT VARIABLES

@     VARIABLE                                         SIMULATED     MEASURED
      --------                                         ---------     --------
      Anthesis day (dap)                                      48          -99
      Physiological maturity day (dap)                        95          -99
      Yield at harvest maturity (kg [dm]/ha)                4276          -99
      Number at maturity (no/m2)                            2564          -99
      Unit wt at maturity (g [dm]/unit)                   0.1668          -99
      Number at maturity (no/unit)                         413.6          -99
      Tops weight at maturity (kg [dm]/ha)                  8389          -99
      By-product produced (stalk) at maturity (kg[dm]/ha    4147          -99
      Leaf area index, maximum                              1.49          -99
      Harvest index at maturity                            0.510          -99
      Grain N at maturity (kg/ha)                             77          -99
      Tops N at maturity (kg/ha)                             105          -99
      Stem N at maturity (kg/ha)                              28          -99
      Grain N at maturity (%)                                1.8          -99
      Tops weight at anthesis (kg [dm]/ha)                  2664          -99
      Tops N at anthesis (kg/ha)                              57          -99
      Leaf number per stem at maturity                     20.18          -99
      Emergence day (dap)                                      5          -99


*ENVIRONMENTAL AND STRESS FACTORS

 |-----Development Phase------|--------------------------------------Environment--------------------------------------|-----------------Stress-----------------|
                              |---------------Average--------------|-----Cumulative-----|--------Count of days--------|          (0=Min, 1=Max Stress)         |
                         Time  Temp  Temp  Temp Solar Photop                Evapo    Pot TMIN TMIN TMAX TMAX TMAX RAIN|----Water----|---Nitrogen--|-Phosphorus-|
                         Span   Max   Min  Mean   Rad  [day]    CO2   Rain  Trans     ET   <    <    >    >    >    >   Photo         Photo         Photo
                         days    邂    邂    邂 MJ/m2     hr    ppm     mm     mm     mm  0邂  2邂 30邂 32邂 34邂  0mm  synth Growth  synth Growth  synth Growth
----------------------------------------------------------------------------------------------------------------------------------------------------------------
 Emergence-End Juvenile    11  33.1  23.0  28.0  19.9   0.00  347.8    0.0    9.2   63.7    0    0   11    8    3    0  0.000  0.000  0.002  0.006  0.000  0.000
 End Juvenil-Floral Init    4  35.5  22.5  29.0  20.3   0.00  348.0    0.0    6.2   24.1    0    0    4    4    4    0  0.000  0.000  0.001  0.002  0.000  0.000
 Floral Init-End Lf Grow   28  34.4  23.7  29.0  18.6   0.00  348.0   83.5   61.0  145.2    0    0   26   24   15    7  0.365  0.498  0.000  0.000  0.000  0.000
 End Lf Grth-Beg Grn Fil    8  35.0  24.1  29.6  22.0   0.00  348.1    3.3   34.5   49.0    0    0    8    8    6    2  0.059  0.139  0.000  0.000  0.000  0.000
 Grain Filling Phase       36  34.1  23.8  29.0  20.0   8.75  348.2   91.5  106.8  201.9    0    0   32   30   19    8  0.315  0.409  0.000  0.000  0.000  0.000


 Planting to Harvest       95  34.0  23.6  28.8  19.5   3.83  348.1  259.6  247.7  523.5    0    0   88   77   47   22  0.239  0.322  0.000  0.001  0.000  0.000
----------------------------------------------------------------------------------------------------------------------------------------------------------------


*Resource Productivity
 Growing season length:  95 days 

 Precipitation during growing season       259.6 mm[rain]
   Dry Matter Productivity                  3.23 kg[DM]/m3[rain]          =   32.3 kg[DM]/ha per mm[rain]
   Yield Productivity                       1.65 kg[grain yield]/m3[rain] =   16.5 kg[yield]/ha per mm[rain]

 Evapotranspiration during growing season  247.7 mm[ET]
   Dry Matter Productivity                  3.39 kg[DM]/m3[ET]            =   33.9 kg[DM]/ha per mm[ET]
   Yield Productivity                       1.73 kg[grain yield]/m3[ET]   =   17.3 kg[yield]/ha per mm[ET]

 Transpiration during growing season       158.3 mm[EP]
   Dry Matter Productivity                  5.30 kg[DM]/m3[EP]            =   53.0 kg[DM]/ha per mm[EP]
   Yield Productivity                       2.70 kg[grain yield]/m3[EP]   =   27.0 kg[yield]/ha per mm[EP]

 N applied during growing season            162. kg[N applied]/ha
   Dry Matter Productivity                  51.8 kg[DM]/kg[N applied]
   Yield Productivity                       26.4 kg[yield]/kg[N applied]

 N uptake during growing season              113 kg[N uptake]/ha
   Dry Matter Productivity                  74.2 kg[DM]/kg[N uptake]
   Yield Productivity                       37.8 kg[yield]/kg[N uptake]

--------------------------------------------------------------------------------------------------------------

                     Maize YIELD :     4276 kg/ha    [Dry weight] 

**************************************************************************************************************
