*SIMULATION OVERVIEW FILE

*DSSAT Cropping System Model Ver. 4.6.1.000 -release      OCT 24, 2017; 11:03:39
                                                                                
*RUN   1        : P07/14                    MZCER046 ANES2009    1              
 MODEL          : MZCER046 - Maize                                              
 EXPERIMENT     : ANES2009 MZ  MZ Analisis a침os de bajo rendimiento Espinal    
 DATA PATH      : C:\DSSAT46\maize\                                             
 TREATMENT  1   : P07/14                    MZCER046                            
                                                                                
                                                                                
 CROP           : Maize            CULTIVAR : FNC3056          ECOTYPE :IB0001  
 STARTING DATE  : JUN 14 2009                                                   
 PLANTING DATE  : JUL 14 2009        PLANTS/m2 :  6.2     ROW SPACING :  80.cm  
 WEATHER        : CNAT   2009                                                   
 SOIL           : CCESPI2017     TEXTURE : SL    -   Suelo Espinal Calibraci    
 SOIL INITIAL C : DEPTH:100cm EXTR. H2O: 83.6mm  NO3:  0.0kg/ha  NH4:  0.0kg/ha 
 WATER BALANCE  : RAINFED                                                       
 IRRIGATION     : NOT IRRIGATED                                                 
 NITROGEN BAL.  : SOIL-N & N-UPTAKE SIMULATION; NO N-FIXATION                   
 N-FERTILIZER   :      162 kg/ha IN     6 APPLICATIONS                          
 RESIDUE/MANURE : INITIAL :     0 kg/ha ;       0 kg/ha IN     0 APPLICATIONS   
 ENVIRONM. OPT. : DAYL=    0.00  SRAD=    0.00  TMAX=    0.00  TMIN=    0.00    
                  RAIN=    0.00  CO2 =    0.00  DEW =    0.00  WIND=    0.00    
 SIMULATION OPT : WATER   :Y  NITROGEN:Y  N-FIX:N  PHOSPH :N  PESTS  :N         
                  PHOTO   :C  ET      :R  INFIL:S  HYDROL :R  SOM    :G         
                  CO2 387ppm  NSWIT   :1  EVAP :S  SOIL   :2  STEMP  :D         
 MANAGEMENT OPT : PLANTING:R  IRRIG   :N  FERT :D  RESIDUE:R  HARVEST:M         
                  WEATHER :M  TILLAGE :N                                        
                                                                                
*SUMMARY OF SOIL AND GENETIC INPUT PARAMETERS                                   
                                                                                
   SOIL LOWER UPPER   SAT  EXTR  INIT   ROOT   BULK     pH    NO3    NH4    ORG 
  DEPTH LIMIT LIMIT    SW    SW    SW   DIST   DENS                          C  
   cm   cm3/cm3    cm3/cm3    cm3/cm3         g/cm3         ugN/g  ugN/g     %  
------------------------------------------------------------------------------- 
  0-  5 0.160 0.252 0.376 0.092 0.252   1.00   1.69   6.60   0.00   0.00   0.45 
  5- 15 0.160 0.252 0.376 0.092 0.252   1.00   1.69   6.60   0.00   0.00   0.45 
 15- 30 0.160 0.252 0.376 0.092 0.252   1.00   1.69   6.60   0.00   0.00   0.45 
 30- 53 0.120 0.200 0.440 0.080 0.200   0.27   1.40   7.10   0.00   0.00   0.17 
 53- 77 0.120 0.200 0.440 0.080 0.200   0.27   1.40   7.10   0.00   0.00   0.17 
 77-100 0.120 0.200 0.440 0.080 0.200   0.27   1.40   7.10   0.00   0.00   0.17 
                                                                                
TOT-100  13.2  21.6  42.1   8.4  21.6  <--cm   -  kg/ha-->    0.0    0.0  39475 
SOIL ALBEDO    : 0.09      EVAPORATION LIMIT : 6.00         MIN. FACTOR  : 1.00 
RUNOFF CURVE # :76.00      DRAINAGE RATE     : 0.60         FERT. FACTOR : 1.00 
                                                                                
 Maize      CULTIVAR :CI0003-FNC3056            ECOTYPE :IB0001                 
 P1     : 233.00  P2     : 0.5000  P5     : 976.00                              
 G2     : 956.00  G3     :  7.500  PHINT  : 45.600                              


*SIMULATED CROP AND SOIL STATUS AT MAIN DEVELOPMENT STAGES

 RUN NO.     1     P07/14                  

        CROP GROWTH     BIOMASS         LEAF   CROP N     STRESS      STRESS                                           
   DATE  AGE STAGE        kg/ha    LAI   NUM  kg/ha  %   H2O  Nitr Phos1 Phos2  RSTG                                   
 ------  --- ----------   -----  -----  ----  ---  ---  ----  ----  ----  ----  ----                                   
 14 JUN    0 Start Sim        0   0.00   0.0    0  0.0  0.00  0.00  0.00  0.00     7
 14 JUL    0 Sowing           0   0.00   0.0    0  0.0  0.00  0.00  0.00  0.00     8
 15 JUL    1 Germinate        0   0.00   0.0    0  0.0  0.00  0.00  0.00  0.00     9
 19 JUL    5 Emergence       25   0.00   2.2    1  4.4  0.00  0.01  0.00  0.00     1
 30 JUL   16 End Juveni     132   0.27   7.8    4  3.2  0.04  0.00  0.00  0.00     2
  7 AUG   24 Floral Ini     383   0.60  11.6    6  1.6  0.25  0.39  0.00  0.00     3
  9 SEP   57 75% Silkin    2813   1.09  23.9   64  2.3  0.57  0.21  0.00  0.00     4
 18 SEP   66 Beg Gr Fil    3246   0.88  23.9   64  2.0  0.51  0.00  0.00  0.00     5
 25 OCT  103 End Gr Fil    4951   0.52  23.9   58  1.2  0.37  0.00  0.00  0.00     6
 27 OCT  105 Maturity      4951   0.52  23.9   58  1.2  0.00  0.00  0.00  0.00    10
 27 OCT  105 Harvest       4951   0.52  23.9   58  1.2  0.00  0.00  0.00  0.00    10


*MAIN GROWTH AND DEVELOPMENT VARIABLES

@     VARIABLE                                         SIMULATED     MEASURED
      --------                                         ---------     --------
      Anthesis day (dap)                                      57          -99
      Physiological maturity day (dap)                       105          -99
      Yield at harvest maturity (kg [dm]/ha)                1789          -99
      Number at maturity (no/m2)                             976          -99
      Unit wt at maturity (g [dm]/unit)                   0.1834          -99
      Number at maturity (no/unit)                         157.3          -99
      Tops weight at maturity (kg [dm]/ha)                  4951          -99
      By-product produced (stalk) at maturity (kg[dm]/ha    3198          -99
      Leaf area index, maximum                              1.38          -99
      Harvest index at maturity                            0.361          -99
      Grain N at maturity (kg/ha)                             32          -99
      Tops N at maturity (kg/ha)                              58          -99
      Stem N at maturity (kg/ha)                              26          -99
      Grain N at maturity (%)                                1.8          -99
      Tops weight at anthesis (kg [dm]/ha)                  2799          -99
      Tops N at anthesis (kg/ha)                              64          -99
      Leaf number per stem at maturity                     23.94          -99
      Emergence day (dap)                                      5          -99


*ENVIRONMENTAL AND STRESS FACTORS

 |-----Development Phase------|--------------------------------------Environment--------------------------------------|-----------------Stress-----------------|
                              |---------------Average--------------|-----Cumulative-----|--------Count of days--------|          (0=Min, 1=Max Stress)         |
                         Time  Temp  Temp  Temp Solar Photop                Evapo    Pot TMIN TMIN TMAX TMAX TMAX RAIN|----Water----|---Nitrogen--|-Phosphorus-|
                         Span   Max   Min  Mean   Rad  [day]    CO2   Rain  Trans     ET   <    <    >    >    >    >   Photo         Photo         Photo
                         days    邂    邂    邂 MJ/m2     hr    ppm     mm     mm     mm  0邂  2邂 30邂 32邂 34邂  0mm  synth Growth  synth Growth  synth Growth
----------------------------------------------------------------------------------------------------------------------------------------------------------------
 Emergence-End Juvenile    11  34.3  21.6  27.9  18.9  24.00  387.5    0.0    4.8   60.2    0    0   11   10    7    0  0.000  0.021  0.002  0.006  0.000  0.000
 End Juvenil-Floral Init    8  35.1  22.2  28.7  20.4  24.00  387.5    0.0   11.6   47.5    0    0    8    7    7    0  0.035  0.242  0.140  0.304  0.000  0.000
 Floral Init-End Lf Grow   33  34.4  22.0  28.2  19.8  22.39  387.6   48.0   67.6  181.4    0    0   32   29   21    7  0.416  0.554  0.151  0.227  0.000  0.000
 End Lf Grth-Beg Grn Fil    9  35.9  22.1  29.0  20.8  14.70  387.7  132.0   22.0   55.5    0    0    9    8    7    4  0.580  0.609  0.000  0.000  0.000  0.000
 Grain Filling Phase       37  35.0  22.4  28.7  20.5   5.80  387.9   35.8   97.3  218.5    0    0   36   33   25    7  0.275  0.367  0.000  0.000  0.000  0.000


 Planting to Harvest      105  34.7  22.0  28.4  20.2  15.83  387.7  215.8  212.5  604.5    0    0  103   93   71   18  0.280  0.377  0.058  0.095  0.000  0.000
----------------------------------------------------------------------------------------------------------------------------------------------------------------


*Resource Productivity
 Growing season length: 105 days 

 Precipitation during growing season       215.8 mm[rain]
   Dry Matter Productivity                  2.29 kg[DM]/m3[rain]          =   22.9 kg[DM]/ha per mm[rain]
   Yield Productivity                       0.83 kg[grain yield]/m3[rain] =    8.3 kg[yield]/ha per mm[rain]

 Evapotranspiration during growing season  212.5 mm[ET]
   Dry Matter Productivity                  2.33 kg[DM]/m3[ET]            =   23.3 kg[DM]/ha per mm[ET]
   Yield Productivity                       0.84 kg[grain yield]/m3[ET]   =    8.4 kg[yield]/ha per mm[ET]

 Transpiration during growing season       141.4 mm[EP]
   Dry Matter Productivity                  3.50 kg[DM]/m3[EP]            =   35.0 kg[DM]/ha per mm[EP]
   Yield Productivity                       1.27 kg[grain yield]/m3[EP]   =   12.7 kg[yield]/ha per mm[EP]

 N applied during growing season            162. kg[N applied]/ha
   Dry Matter Productivity                  30.6 kg[DM]/kg[N applied]
   Yield Productivity                       11.0 kg[yield]/kg[N applied]

 N uptake during growing season               69 kg[N uptake]/ha
   Dry Matter Productivity                  71.7 kg[DM]/kg[N uptake]
   Yield Productivity                       25.9 kg[yield]/kg[N uptake]

--------------------------------------------------------------------------------------------------------------

                     Maize YIELD :     1789 kg/ha    [Dry weight] 

**************************************************************************************************************

*DSSAT Cropping System Model Ver. 4.6.1.000 -release      OCT 24, 2017; 11:03:39
                                                                                
*RUN   2        : P07/19                    MZCER046 ANES2009    2              
 MODEL          : MZCER046 - Maize                                              
 EXPERIMENT     : ANES2009 MZ  MZ Analisis a침os de bajo rendimiento Espinal    
 DATA PATH      : C:\DSSAT46\maize\                                             
 TREATMENT  2   : P07/19                    MZCER046                            
                                                                                
                                                                                
 CROP           : Maize            CULTIVAR : FNC3056          ECOTYPE :IB0001  
 STARTING DATE  : JUN 19 2009                                                   
 PLANTING DATE  : JUL 19 2009        PLANTS/m2 :  6.2     ROW SPACING :  80.cm  
 WEATHER        : CNAT   2009                                                   
 SOIL           : CCESPI2017     TEXTURE : SL    -   Suelo Espinal Calibraci    
 SOIL INITIAL C : DEPTH:100cm EXTR. H2O: 83.6mm  NO3:  0.0kg/ha  NH4:  0.0kg/ha 
 WATER BALANCE  : RAINFED                                                       
 IRRIGATION     : NOT IRRIGATED                                                 
 NITROGEN BAL.  : SOIL-N & N-UPTAKE SIMULATION; NO N-FIXATION                   
 N-FERTILIZER   :      162 kg/ha IN     6 APPLICATIONS                          
 RESIDUE/MANURE : INITIAL :     0 kg/ha ;       0 kg/ha IN     0 APPLICATIONS   
 ENVIRONM. OPT. : DAYL=    0.00  SRAD=    0.00  TMAX=    0.00  TMIN=    0.00    
                  RAIN=    0.00  CO2 =    0.00  DEW =    0.00  WIND=    0.00    
 SIMULATION OPT : WATER   :Y  NITROGEN:Y  N-FIX:N  PHOSPH :N  PESTS  :N         
                  PHOTO   :C  ET      :R  INFIL:S  HYDROL :R  SOM    :G         
                  CO2 387ppm  NSWIT   :1  EVAP :S  SOIL   :2  STEMP  :D         
 MANAGEMENT OPT : PLANTING:R  IRRIG   :N  FERT :D  RESIDUE:R  HARVEST:M         
                  WEATHER :M  TILLAGE :N                                        
                                                                                
*SUMMARY OF SOIL AND GENETIC INPUT PARAMETERS                                   
                                                                                
   SOIL LOWER UPPER   SAT  EXTR  INIT   ROOT   BULK     pH    NO3    NH4    ORG 
  DEPTH LIMIT LIMIT    SW    SW    SW   DIST   DENS                          C  
   cm   cm3/cm3    cm3/cm3    cm3/cm3         g/cm3         ugN/g  ugN/g     %  
------------------------------------------------------------------------------- 
  0-  5 0.160 0.252 0.376 0.092 0.252   1.00   1.69   6.60   0.00   0.00   0.45 
  5- 15 0.160 0.252 0.376 0.092 0.252   1.00   1.69   6.60   0.00   0.00   0.45 
 15- 30 0.160 0.252 0.376 0.092 0.252   1.00   1.69   6.60   0.00   0.00   0.45 
 30- 53 0.120 0.200 0.440 0.080 0.200   0.27   1.40   7.10   0.00   0.00   0.17 
 53- 77 0.120 0.200 0.440 0.080 0.200   0.27   1.40   7.10   0.00   0.00   0.17 
 77-100 0.120 0.200 0.440 0.080 0.200   0.27   1.40   7.10   0.00   0.00   0.17 
                                                                                
TOT-100  13.2  21.6  42.1   8.4  21.6  <--cm   -  kg/ha-->    0.0    0.0  39475 
SOIL ALBEDO    : 0.09      EVAPORATION LIMIT : 6.00         MIN. FACTOR  : 1.00 
RUNOFF CURVE # :76.00      DRAINAGE RATE     : 0.60         FERT. FACTOR : 1.00 
                                                                                
 Maize      CULTIVAR :CI0003-FNC3056            ECOTYPE :IB0001                 
 P1     : 233.00  P2     : 0.5000  P5     : 976.00                              
 G2     : 956.00  G3     :  7.500  PHINT  : 45.600                              


*SIMULATED CROP AND SOIL STATUS AT MAIN DEVELOPMENT STAGES

 RUN NO.     2     P07/19                  

        CROP GROWTH     BIOMASS         LEAF   CROP N     STRESS      STRESS                                           
   DATE  AGE STAGE        kg/ha    LAI   NUM  kg/ha  %   H2O  Nitr Phos1 Phos2  RSTG                                   
 ------  --- ----------   -----  -----  ----  ---  ---  ----  ----  ----  ----  ----                                   
 19 JUN    0 Start Sim        0   0.00   0.0    0  0.0  0.00  0.00  0.00  0.00     7
 19 JUL    0 Sowing           0   0.00   0.0    0  0.0  0.00  0.00  0.00  0.00     8
 20 JUL    1 Germinate        0   0.00   0.0    0  0.0  0.00  0.00  0.00  0.00     9
 24 JUL    5 Emergence       25   0.00   2.2    1  4.4  0.00  0.01  0.00  0.00     1
  4 AUG   16 End Juveni     143   0.30   8.0    5  3.2  0.06  0.00  0.00  0.00     2
 12 AUG   24 Floral Ini     400   0.62  11.6    6  1.6  0.31  0.40  0.00  0.00     3
 14 SEP   57 75% Silkin    2865   1.09  24.0   69  2.4  0.61  0.09  0.00  0.00     4
 23 SEP   66 Beg Gr Fil    4268   1.09  24.0   69  1.6  0.00  0.00  0.00  0.00     5
 30 OCT  103 End Gr Fil    6896   0.52  24.0   82  1.2  0.50  0.00  0.00  0.00     6
  1 NOV  105 Maturity      6896   0.52  24.0   82  1.2  0.71  0.00  0.00  0.00    10
  1 NOV  105 Harvest       6896   0.52  24.0   82  1.2  0.00  0.00  0.00  0.00    10


*MAIN GROWTH AND DEVELOPMENT VARIABLES

@     VARIABLE                                         SIMULATED     MEASURED
      --------                                         ---------     --------
      Anthesis day (dap)                                      57          -99
      Physiological maturity day (dap)                       105          -99
      Yield at harvest maturity (kg [dm]/ha)                3189          -99
      Number at maturity (no/m2)                            1983          -99
      Unit wt at maturity (g [dm]/unit)                   0.1609          -99
      Number at maturity (no/unit)                         319.8          -99
      Tops weight at maturity (kg [dm]/ha)                  6896          -99
      By-product produced (stalk) at maturity (kg[dm]/ha    3747          -99
      Leaf area index, maximum                              1.56          -99
      Harvest index at maturity                            0.462          -99
      Grain N at maturity (kg/ha)                             58          -99
      Tops N at maturity (kg/ha)                              82          -99
      Stem N at maturity (kg/ha)                              24          -99
      Grain N at maturity (%)                                1.8          -99
      Tops weight at anthesis (kg [dm]/ha)                  2866          -99
      Tops N at anthesis (kg/ha)                              69          -99
      Leaf number per stem at maturity                     24.02          -99
      Emergence day (dap)                                      5          -99


*ENVIRONMENTAL AND STRESS FACTORS

 |-----Development Phase------|--------------------------------------Environment--------------------------------------|-----------------Stress-----------------|
                              |---------------Average--------------|-----Cumulative-----|--------Count of days--------|          (0=Min, 1=Max Stress)         |
                         Time  Temp  Temp  Temp Solar Photop                Evapo    Pot TMIN TMIN TMAX TMAX TMAX RAIN|----Water----|---Nitrogen--|-Phosphorus-|
                         Span   Max   Min  Mean   Rad  [day]    CO2   Rain  Trans     ET   <    <    >    >    >    >   Photo         Photo         Photo
                         days    邂    邂    邂 MJ/m2     hr    ppm     mm     mm     mm  0邂  2邂 30邂 32邂 34邂  0mm  synth Growth  synth Growth  synth Growth
----------------------------------------------------------------------------------------------------------------------------------------------------------------
 Emergence-End Juvenile    11  35.3  21.6  28.5  20.6  24.00  387.5    0.0    5.2   67.0    0    0   11   11   11    0  0.000  0.044  0.002  0.005  0.000  0.000
 End Juvenil-Floral Init    8  34.2  22.2  28.2  17.0  24.00  387.5    0.0    9.7   38.3    0    0    8    6    6    0  0.085  0.262  0.148  0.320  0.000  0.000
 Floral Init-End Lf Grow   33  34.8  22.2  28.5  20.4  21.10  387.6   50.5   70.7  187.7    0    0   32   30   22    8  0.470  0.597  0.069  0.108  0.000  0.000
 End Lf Grth-Beg Grn Fil    9  34.5  21.8  28.2  20.4  12.94  387.8  134.1   39.6   51.0    0    0    9    8    4    4  0.103  0.106  0.000  0.000  0.000  0.000
 Grain Filling Phase       37  35.0  22.3  28.7  20.6   4.14  388.0   33.4   84.1  218.7    0    0   36   32   27    7  0.392  0.492  0.000  0.000  0.000  0.000


 Planting to Harvest      105  34.7  22.1  28.4  20.1  14.68  387.7  218.6  213.9  599.6    0    0  103   92   71   20  0.306  0.403  0.033  0.059  0.000  0.000
----------------------------------------------------------------------------------------------------------------------------------------------------------------


*Resource Productivity
 Growing season length: 105 days 

 Precipitation during growing season       218.6 mm[rain]
   Dry Matter Productivity                  3.15 kg[DM]/m3[rain]          =   31.5 kg[DM]/ha per mm[rain]
   Yield Productivity                       1.46 kg[grain yield]/m3[rain] =   14.6 kg[yield]/ha per mm[rain]

 Evapotranspiration during growing season  213.9 mm[ET]
   Dry Matter Productivity                  3.22 kg[DM]/m3[ET]            =   32.2 kg[DM]/ha per mm[ET]
   Yield Productivity                       1.49 kg[grain yield]/m3[ET]   =   14.9 kg[yield]/ha per mm[ET]

 Transpiration during growing season       143.5 mm[EP]
   Dry Matter Productivity                  4.80 kg[DM]/m3[EP]            =   48.0 kg[DM]/ha per mm[EP]
   Yield Productivity                       2.22 kg[grain yield]/m3[EP]   =   22.2 kg[yield]/ha per mm[EP]

 N applied during growing season            162. kg[N applied]/ha
   Dry Matter Productivity                  42.6 kg[DM]/kg[N applied]
   Yield Productivity                       19.7 kg[yield]/kg[N applied]

 N uptake during growing season               91 kg[N uptake]/ha
   Dry Matter Productivity                  75.8 kg[DM]/kg[N uptake]
   Yield Productivity                       35.0 kg[yield]/kg[N uptake]

--------------------------------------------------------------------------------------------------------------

                     Maize YIELD :     3189 kg/ha    [Dry weight] 

**************************************************************************************************************

*DSSAT Cropping System Model Ver. 4.6.1.000 -release      OCT 24, 2017; 11:03:39
                                                                                
*RUN   3        : P07/24                    MZCER046 ANES2009    3              
 MODEL          : MZCER046 - Maize                                              
 EXPERIMENT     : ANES2009 MZ  MZ Analisis a침os de bajo rendimiento Espinal    
 DATA PATH      : C:\DSSAT46\maize\                                             
 TREATMENT  3   : P07/24                    MZCER046                            
                                                                                
                                                                                
 CROP           : Maize            CULTIVAR : FNC3056          ECOTYPE :IB0001  
 STARTING DATE  : JUN 24 2009                                                   
 PLANTING DATE  : JUL 24 2009        PLANTS/m2 :  6.2     ROW SPACING :  80.cm  
 WEATHER        : CNAT   2009                                                   
 SOIL           : CCESPI2017     TEXTURE : SL    -   Suelo Espinal Calibraci    
 SOIL INITIAL C : DEPTH:100cm EXTR. H2O: 83.6mm  NO3:  0.0kg/ha  NH4:  0.0kg/ha 
 WATER BALANCE  : RAINFED                                                       
 IRRIGATION     : NOT IRRIGATED                                                 
 NITROGEN BAL.  : SOIL-N & N-UPTAKE SIMULATION; NO N-FIXATION                   
 N-FERTILIZER   :      162 kg/ha IN     6 APPLICATIONS                          
 RESIDUE/MANURE : INITIAL :     0 kg/ha ;       0 kg/ha IN     0 APPLICATIONS   
 ENVIRONM. OPT. : DAYL=    0.00  SRAD=    0.00  TMAX=    0.00  TMIN=    0.00    
                  RAIN=    0.00  CO2 =    0.00  DEW =    0.00  WIND=    0.00    
 SIMULATION OPT : WATER   :Y  NITROGEN:Y  N-FIX:N  PHOSPH :N  PESTS  :N         
                  PHOTO   :C  ET      :R  INFIL:S  HYDROL :R  SOM    :G         
                  CO2 387ppm  NSWIT   :1  EVAP :S  SOIL   :2  STEMP  :D         
 MANAGEMENT OPT : PLANTING:R  IRRIG   :N  FERT :D  RESIDUE:R  HARVEST:M         
                  WEATHER :M  TILLAGE :N                                        
                                                                                
*SUMMARY OF SOIL AND GENETIC INPUT PARAMETERS                                   
                                                                                
   SOIL LOWER UPPER   SAT  EXTR  INIT   ROOT   BULK     pH    NO3    NH4    ORG 
  DEPTH LIMIT LIMIT    SW    SW    SW   DIST   DENS                          C  
   cm   cm3/cm3    cm3/cm3    cm3/cm3         g/cm3         ugN/g  ugN/g     %  
------------------------------------------------------------------------------- 
  0-  5 0.160 0.252 0.376 0.092 0.252   1.00   1.69   6.60   0.00   0.00   0.45 
  5- 15 0.160 0.252 0.376 0.092 0.252   1.00   1.69   6.60   0.00   0.00   0.45 
 15- 30 0.160 0.252 0.376 0.092 0.252   1.00   1.69   6.60   0.00   0.00   0.45 
 30- 53 0.120 0.200 0.440 0.080 0.200   0.27   1.40   7.10   0.00   0.00   0.17 
 53- 77 0.120 0.200 0.440 0.080 0.200   0.27   1.40   7.10   0.00   0.00   0.17 
 77-100 0.120 0.200 0.440 0.080 0.200   0.27   1.40   7.10   0.00   0.00   0.17 
                                                                                
TOT-100  13.2  21.6  42.1   8.4  21.6  <--cm   -  kg/ha-->    0.0    0.0  39475 
SOIL ALBEDO    : 0.09      EVAPORATION LIMIT : 6.00         MIN. FACTOR  : 1.00 
RUNOFF CURVE # :76.00      DRAINAGE RATE     : 0.60         FERT. FACTOR : 1.00 
                                                                                
 Maize      CULTIVAR :CI0003-FNC3056            ECOTYPE :IB0001                 
 P1     : 233.00  P2     : 0.5000  P5     : 976.00                              
 G2     : 956.00  G3     :  7.500  PHINT  : 45.600                              


*SIMULATED CROP AND SOIL STATUS AT MAIN DEVELOPMENT STAGES

 RUN NO.     3     P07/24                  

        CROP GROWTH     BIOMASS         LEAF   CROP N     STRESS      STRESS                                           
   DATE  AGE STAGE        kg/ha    LAI   NUM  kg/ha  %   H2O  Nitr Phos1 Phos2  RSTG                                   
 ------  --- ----------   -----  -----  ----  ---  ---  ----  ----  ----  ----  ----                                   
 24 JUN    0 Start Sim        0   0.00   0.0    0  0.0  0.00  0.00  0.00  0.00     7
 24 JUL    0 Sowing           0   0.00   0.0    0  0.0  0.00  0.00  0.00  0.00     8
 25 JUL    1 Germinate        0   0.00   0.0    0  0.0  0.00  0.00  0.00  0.00     9
 29 JUL    5 Emergence       25   0.00   2.2    1  4.4  0.00  0.01  0.00  0.00     1
  9 AUG   16 End Juveni     157   0.32   7.9    5  3.2  0.00  0.00  0.00  0.00     2
 17 AUG   24 Floral Ini     477   0.74  11.7   17  3.6  0.21  0.35  0.00  0.00     3
 20 SEP   58 75% Silkin    4269   1.75  24.2   84  2.0  0.48  0.00  0.00  0.00     4
 28 SEP   66 Beg Gr Fil    5984   1.67  24.2   85  1.4  0.27  0.00  0.00  0.00     5
  4 NOV  103 End Gr Fil    8326   0.55  24.2   95  1.1  0.69  0.00  0.00  0.00     6
  7 NOV  106 Maturity      8326   0.55  24.2   95  1.1  0.87  0.00  0.00  0.00    10
  7 NOV  106 Harvest       8326   0.55  24.2   95  1.1  0.00  0.00  0.00  0.00    10


*MAIN GROWTH AND DEVELOPMENT VARIABLES

@     VARIABLE                                         SIMULATED     MEASURED
      --------                                         ---------     --------
      Anthesis day (dap)                                      58          -99
      Physiological maturity day (dap)                       106          -99
      Yield at harvest maturity (kg [dm]/ha)                3433          -99
      Number at maturity (no/m2)                            2782          -99
      Unit wt at maturity (g [dm]/unit)                   0.1234          -99
      Number at maturity (no/unit)                         448.7          -99
      Tops weight at maturity (kg [dm]/ha)                  8326          -99
      By-product produced (stalk) at maturity (kg[dm]/ha    4942          -99
      Leaf area index, maximum                              1.89          -99
      Harvest index at maturity                            0.412          -99
      Grain N at maturity (kg/ha)                             63          -99
      Tops N at maturity (kg/ha)                              95          -99
      Stem N at maturity (kg/ha)                              32          -99
      Grain N at maturity (%)                                1.8          -99
      Tops weight at anthesis (kg [dm]/ha)                  4092          -99
      Tops N at anthesis (kg/ha)                              84          -99
      Leaf number per stem at maturity                     24.16          -99
      Emergence day (dap)                                      5          -99


*ENVIRONMENTAL AND STRESS FACTORS

 |-----Development Phase------|--------------------------------------Environment--------------------------------------|-----------------Stress-----------------|
                              |---------------Average--------------|-----Cumulative-----|--------Count of days--------|          (0=Min, 1=Max Stress)         |
                         Time  Temp  Temp  Temp Solar Photop                Evapo    Pot TMIN TMIN TMAX TMAX TMAX RAIN|----Water----|---Nitrogen--|-Phosphorus-|
                         Span   Max   Min  Mean   Rad  [day]    CO2   Rain  Trans     ET   <    <    >    >    >    >   Photo         Photo         Photo
                         days    邂    邂    邂 MJ/m2     hr    ppm     mm     mm     mm  0邂  2邂 30邂 32邂 34邂  0mm  synth Growth  synth Growth  synth Growth
----------------------------------------------------------------------------------------------------------------------------------------------------------------
 Emergence-End Juvenile    11  34.7  22.4  28.5  18.8  24.00  387.5    0.0    4.5   61.4    0    0   11    9    9    0  0.000  0.000  0.002  0.005  0.000  0.000
 End Juvenil-Floral Init    8  35.2  22.1  28.6  20.2  24.00  387.5    9.7   13.1   46.8    0    0    8    8    7    2  0.054  0.210  0.166  0.347  0.000  0.000
 Floral Init-End Lf Grow   34  34.7  22.0  28.4  20.5  19.32  387.7  170.3   97.8  191.6    0    0   33   30   21    9  0.393  0.485  0.000  0.000  0.000  0.000
 End Lf Grth-Beg Grn Fil    8  35.6  22.1  28.8  21.9  11.06  387.9    4.6   36.3   48.5    0    0    8    8    6    1  0.105  0.214  0.000  0.000  0.000  0.000
 Grain Filling Phase       37  34.4  22.3  28.4  19.5   2.72  388.0   37.0   59.7  202.8    0    0   36   29   22   11  0.595  0.685  0.000  0.000  0.000  0.000


 Planting to Harvest      106  34.7  22.1  28.4  19.8  13.41  387.8  222.4  215.4  591.9    0    0  104   92   70   25  0.367  0.450  0.013  0.027  0.000  0.000
----------------------------------------------------------------------------------------------------------------------------------------------------------------


*Resource Productivity
 Growing season length: 106 days 

 Precipitation during growing season       222.4 mm[rain]
   Dry Matter Productivity                  3.74 kg[DM]/m3[rain]          =   37.4 kg[DM]/ha per mm[rain]
   Yield Productivity                       1.54 kg[grain yield]/m3[rain] =   15.4 kg[yield]/ha per mm[rain]

 Evapotranspiration during growing season  215.4 mm[ET]
   Dry Matter Productivity                  3.87 kg[DM]/m3[ET]            =   38.7 kg[DM]/ha per mm[ET]
   Yield Productivity                       1.59 kg[grain yield]/m3[ET]   =   15.9 kg[yield]/ha per mm[ET]

 Transpiration during growing season       146.2 mm[EP]
   Dry Matter Productivity                  5.69 kg[DM]/m3[EP]            =   56.9 kg[DM]/ha per mm[EP]
   Yield Productivity                       2.35 kg[grain yield]/m3[EP]   =   23.5 kg[yield]/ha per mm[EP]

 N applied during growing season            162. kg[N applied]/ha
   Dry Matter Productivity                  51.4 kg[DM]/kg[N applied]
   Yield Productivity                       21.2 kg[yield]/kg[N applied]

 N uptake during growing season              103 kg[N uptake]/ha
   Dry Matter Productivity                  80.8 kg[DM]/kg[N uptake]
   Yield Productivity                       33.3 kg[yield]/kg[N uptake]

--------------------------------------------------------------------------------------------------------------

                     Maize YIELD :     3433 kg/ha    [Dry weight] 

**************************************************************************************************************

*DSSAT Cropping System Model Ver. 4.6.1.000 -release      OCT 24, 2017; 11:03:40
                                                                                
*RUN   4        : P07/29                    MZCER046 ANES2009    4              
 MODEL          : MZCER046 - Maize                                              
 EXPERIMENT     : ANES2009 MZ  MZ Analisis a침os de bajo rendimiento Espinal    
 DATA PATH      : C:\DSSAT46\maize\                                             
 TREATMENT  4   : P07/29                    MZCER046                            
                                                                                
                                                                                
 CROP           : Maize            CULTIVAR : FNC3056          ECOTYPE :IB0001  
 STARTING DATE  : JUN 29 2009                                                   
 PLANTING DATE  : JUL 29 2009        PLANTS/m2 :  6.2     ROW SPACING :  80.cm  
 WEATHER        : CNAT   2009                                                   
 SOIL           : CCESPI2017     TEXTURE : SL    -   Suelo Espinal Calibraci    
 SOIL INITIAL C : DEPTH:100cm EXTR. H2O: 83.6mm  NO3:  0.0kg/ha  NH4:  0.0kg/ha 
 WATER BALANCE  : RAINFED                                                       
 IRRIGATION     : NOT IRRIGATED                                                 
 NITROGEN BAL.  : SOIL-N & N-UPTAKE SIMULATION; NO N-FIXATION                   
 N-FERTILIZER   :      162 kg/ha IN     6 APPLICATIONS                          
 RESIDUE/MANURE : INITIAL :     0 kg/ha ;       0 kg/ha IN     0 APPLICATIONS   
 ENVIRONM. OPT. : DAYL=    0.00  SRAD=    0.00  TMAX=    0.00  TMIN=    0.00    
                  RAIN=    0.00  CO2 =    0.00  DEW =    0.00  WIND=    0.00    
 SIMULATION OPT : WATER   :Y  NITROGEN:Y  N-FIX:N  PHOSPH :N  PESTS  :N         
                  PHOTO   :C  ET      :R  INFIL:S  HYDROL :R  SOM    :G         
                  CO2 387ppm  NSWIT   :1  EVAP :S  SOIL   :2  STEMP  :D         
 MANAGEMENT OPT : PLANTING:R  IRRIG   :N  FERT :D  RESIDUE:R  HARVEST:M         
                  WEATHER :M  TILLAGE :N                                        
                                                                                
*SUMMARY OF SOIL AND GENETIC INPUT PARAMETERS                                   
                                                                                
   SOIL LOWER UPPER   SAT  EXTR  INIT   ROOT   BULK     pH    NO3    NH4    ORG 
  DEPTH LIMIT LIMIT    SW    SW    SW   DIST   DENS                          C  
   cm   cm3/cm3    cm3/cm3    cm3/cm3         g/cm3         ugN/g  ugN/g     %  
------------------------------------------------------------------------------- 
  0-  5 0.160 0.252 0.376 0.092 0.252   1.00   1.69   6.60   0.00   0.00   0.45 
  5- 15 0.160 0.252 0.376 0.092 0.252   1.00   1.69   6.60   0.00   0.00   0.45 
 15- 30 0.160 0.252 0.376 0.092 0.252   1.00   1.69   6.60   0.00   0.00   0.45 
 30- 53 0.120 0.200 0.440 0.080 0.200   0.27   1.40   7.10   0.00   0.00   0.17 
 53- 77 0.120 0.200 0.440 0.080 0.200   0.27   1.40   7.10   0.00   0.00   0.17 
 77-100 0.120 0.200 0.440 0.080 0.200   0.27   1.40   7.10   0.00   0.00   0.17 
                                                                                
TOT-100  13.2  21.6  42.1   8.4  21.6  <--cm   -  kg/ha-->    0.0    0.0  39475 
SOIL ALBEDO    : 0.09      EVAPORATION LIMIT : 6.00         MIN. FACTOR  : 1.00 
RUNOFF CURVE # :76.00      DRAINAGE RATE     : 0.60         FERT. FACTOR : 1.00 
                                                                                
 Maize      CULTIVAR :CI0003-FNC3056            ECOTYPE :IB0001                 
 P1     : 233.00  P2     : 0.5000  P5     : 976.00                              
 G2     : 956.00  G3     :  7.500  PHINT  : 45.600                              


*SIMULATED CROP AND SOIL STATUS AT MAIN DEVELOPMENT STAGES

 RUN NO.     4     P07/29                  

        CROP GROWTH     BIOMASS         LEAF   CROP N     STRESS      STRESS                                           
   DATE  AGE STAGE        kg/ha    LAI   NUM  kg/ha  %   H2O  Nitr Phos1 Phos2  RSTG                                   
 ------  --- ----------   -----  -----  ----  ---  ---  ----  ----  ----  ----  ----                                   
 29 JUN    0 Start Sim        0   0.00   0.0    0  0.0  0.00  0.00  0.00  0.00     7
 29 JUL    0 Sowing           0   0.00   0.0    0  0.0  0.00  0.00  0.00  0.00     8
 30 JUL    1 Germinate        0   0.00   0.0    0  0.0  0.00  0.00  0.00  0.00     9
  3 AUG    5 Emergence       25   0.00   2.2    1  4.4  0.00  0.01  0.00  0.00     1
 14 AUG   16 End Juveni     151   0.31   7.9    5  3.1  0.04  0.01  0.00  0.00     2
 22 AUG   24 Floral Ini     489   0.80  11.6   16  3.3  0.27  0.02  0.00  0.00     3
 25 SEP   58 75% Silkin    5020   2.09  24.0   99  2.0  0.41  0.00  0.00  0.00     4
  3 OCT   66 Beg Gr Fil    5679   1.65  24.0  100  1.8  0.73  0.00  0.00  0.00     5
  9 NOV  103 End Gr Fil    7724   0.53  24.0  100  1.3  0.71  0.00  0.00  0.00     6
 12 NOV  106 Maturity      7724   0.53  24.0  100  1.3  0.26  0.00  0.00  0.00    10
 12 NOV  106 Harvest       7724   0.53  24.0  100  1.3  0.00  0.00  0.00  0.00    10


*MAIN GROWTH AND DEVELOPMENT VARIABLES

@     VARIABLE                                         SIMULATED     MEASURED
      --------                                         ---------     --------
      Anthesis day (dap)                                      58          -99
      Physiological maturity day (dap)                       106          -99
      Yield at harvest maturity (kg [dm]/ha)                2652          -99
      Number at maturity (no/m2)                            1718          -99
      Unit wt at maturity (g [dm]/unit)                   0.1544          -99
      Number at maturity (no/unit)                         277.0          -99
      Tops weight at maturity (kg [dm]/ha)                  7724          -99
      By-product produced (stalk) at maturity (kg[dm]/ha    5123          -99
      Leaf area index, maximum                              2.11          -99
      Harvest index at maturity                            0.343          -99
      Grain N at maturity (kg/ha)                             49          -99
      Tops N at maturity (kg/ha)                             100          -99
      Stem N at maturity (kg/ha)                              51          -99
      Grain N at maturity (%)                                1.8          -99
      Tops weight at anthesis (kg [dm]/ha)                  4785          -99
      Tops N at anthesis (kg/ha)                              96          -99
      Leaf number per stem at maturity                     24.00          -99
      Emergence day (dap)                                      5          -99


*ENVIRONMENTAL AND STRESS FACTORS

 |-----Development Phase------|--------------------------------------Environment--------------------------------------|-----------------Stress-----------------|
                              |---------------Average--------------|-----Cumulative-----|--------Count of days--------|          (0=Min, 1=Max Stress)         |
                         Time  Temp  Temp  Temp Solar Photop                Evapo    Pot TMIN TMIN TMAX TMAX TMAX RAIN|----Water----|---Nitrogen--|-Phosphorus-|
                         Span   Max   Min  Mean   Rad  [day]    CO2   Rain  Trans     ET   <    <    >    >    >    >   Photo         Photo         Photo
                         days    邂    邂    邂 MJ/m2     hr    ppm     mm     mm     mm  0邂  2邂 30邂 32邂 34邂  0mm  synth Growth  synth Growth  synth Growth
----------------------------------------------------------------------------------------------------------------------------------------------------------------
 Emergence-End Juvenile    11  34.8  22.1  28.5  18.3  24.00  387.5    0.7    4.9   59.7    0    0   11    9    9    1  0.000  0.039  0.004  0.011  0.000  0.000
 End Juvenil-Floral Init    8  33.7  23.2  28.5  17.3  24.00  387.6   12.5   13.8   39.5    0    0    8    7    3    3  0.108  0.230  0.008  0.021  0.000  0.000
 Floral Init-End Lf Grow   34  35.0  21.9  28.4  21.3  17.49  387.7  171.4  115.8  198.7    0    0   33   31   23    8  0.319  0.402  0.000  0.000  0.000  0.000
 End Lf Grth-Beg Grn Fil    8  36.7  22.0  29.3  22.4   9.30  387.9    0.0   21.0   51.5    0    0    8    8    8    0  0.527  0.685  0.000  0.000  0.000  0.000
 Grain Filling Phase       37  34.0  22.4  28.2  18.7   1.53  388.0   37.8   56.6  191.2    0    0   36   29   17   13  0.622  0.704  0.000  0.000  0.000  0.000


 Planting to Harvest      106  34.6  22.2  28.4  19.8  12.28  387.8  237.0  221.1  590.7    0    0  104   92   67   28  0.382  0.464  0.001  0.003  0.000  0.000
----------------------------------------------------------------------------------------------------------------------------------------------------------------


*Resource Productivity
 Growing season length: 106 days 

 Precipitation during growing season       237.0 mm[rain]
   Dry Matter Productivity                  3.26 kg[DM]/m3[rain]          =   32.6 kg[DM]/ha per mm[rain]
   Yield Productivity                       1.12 kg[grain yield]/m3[rain] =   11.2 kg[yield]/ha per mm[rain]

 Evapotranspiration during growing season  221.1 mm[ET]
   Dry Matter Productivity                  3.49 kg[DM]/m3[ET]            =   34.9 kg[DM]/ha per mm[ET]
   Yield Productivity                       1.20 kg[grain yield]/m3[ET]   =   12.0 kg[yield]/ha per mm[ET]

 Transpiration during growing season       147.3 mm[EP]
   Dry Matter Productivity                  5.24 kg[DM]/m3[EP]            =   52.4 kg[DM]/ha per mm[EP]
   Yield Productivity                       1.80 kg[grain yield]/m3[EP]   =   18.0 kg[yield]/ha per mm[EP]

 N applied during growing season            162. kg[N applied]/ha
   Dry Matter Productivity                  47.7 kg[DM]/kg[N applied]
   Yield Productivity                       16.4 kg[yield]/kg[N applied]

 N uptake during growing season              111 kg[N uptake]/ha
   Dry Matter Productivity                  69.6 kg[DM]/kg[N uptake]
   Yield Productivity                       23.9 kg[yield]/kg[N uptake]

--------------------------------------------------------------------------------------------------------------

                     Maize YIELD :     2652 kg/ha    [Dry weight] 

**************************************************************************************************************

*DSSAT Cropping System Model Ver. 4.6.1.000 -release      OCT 24, 2017; 11:03:40
                                                                                
*RUN   5        : P08/03                    MZCER046 ANES2009    5              
 MODEL          : MZCER046 - Maize                                              
 EXPERIMENT     : ANES2009 MZ  MZ Analisis a침os de bajo rendimiento Espinal    
 DATA PATH      : C:\DSSAT46\maize\                                             
 TREATMENT  5   : P08/03                    MZCER046                            
                                                                                
                                                                                
 CROP           : Maize            CULTIVAR : FNC3056          ECOTYPE :IB0001  
 STARTING DATE  : JUL  4 2009                                                   
 PLANTING DATE  : AUG  3 2009        PLANTS/m2 :  6.2     ROW SPACING :  80.cm  
 WEATHER        : CNAT   2009                                                   
 SOIL           : CCESPI2017     TEXTURE : SL    -   Suelo Espinal Calibraci    
 SOIL INITIAL C : DEPTH:100cm EXTR. H2O: 83.6mm  NO3:  0.0kg/ha  NH4:  0.0kg/ha 
 WATER BALANCE  : RAINFED                                                       
 IRRIGATION     : NOT IRRIGATED                                                 
 NITROGEN BAL.  : SOIL-N & N-UPTAKE SIMULATION; NO N-FIXATION                   
 N-FERTILIZER   :      162 kg/ha IN     6 APPLICATIONS                          
 RESIDUE/MANURE : INITIAL :     0 kg/ha ;       0 kg/ha IN     0 APPLICATIONS   
 ENVIRONM. OPT. : DAYL=    0.00  SRAD=    0.00  TMAX=    0.00  TMIN=    0.00    
                  RAIN=    0.00  CO2 =    0.00  DEW =    0.00  WIND=    0.00    
 SIMULATION OPT : WATER   :Y  NITROGEN:Y  N-FIX:N  PHOSPH :N  PESTS  :N         
                  PHOTO   :C  ET      :R  INFIL:S  HYDROL :R  SOM    :G         
                  CO2 387ppm  NSWIT   :1  EVAP :S  SOIL   :2  STEMP  :D         
 MANAGEMENT OPT : PLANTING:R  IRRIG   :N  FERT :D  RESIDUE:R  HARVEST:M         
                  WEATHER :M  TILLAGE :N                                        
                                                                                
*SUMMARY OF SOIL AND GENETIC INPUT PARAMETERS                                   
                                                                                
   SOIL LOWER UPPER   SAT  EXTR  INIT   ROOT   BULK     pH    NO3    NH4    ORG 
  DEPTH LIMIT LIMIT    SW    SW    SW   DIST   DENS                          C  
   cm   cm3/cm3    cm3/cm3    cm3/cm3         g/cm3         ugN/g  ugN/g     %  
------------------------------------------------------------------------------- 
  0-  5 0.160 0.252 0.376 0.092 0.252   1.00   1.69   6.60   0.00   0.00   0.45 
  5- 15 0.160 0.252 0.376 0.092 0.252   1.00   1.69   6.60   0.00   0.00   0.45 
 15- 30 0.160 0.252 0.376 0.092 0.252   1.00   1.69   6.60   0.00   0.00   0.45 
 30- 53 0.120 0.200 0.440 0.080 0.200   0.27   1.40   7.10   0.00   0.00   0.17 
 53- 77 0.120 0.200 0.440 0.080 0.200   0.27   1.40   7.10   0.00   0.00   0.17 
 77-100 0.120 0.200 0.440 0.080 0.200   0.27   1.40   7.10   0.00   0.00   0.17 
                                                                                
TOT-100  13.2  21.6  42.1   8.4  21.6  <--cm   -  kg/ha-->    0.0    0.0  39475 
SOIL ALBEDO    : 0.09      EVAPORATION LIMIT : 6.00         MIN. FACTOR  : 1.00 
RUNOFF CURVE # :76.00      DRAINAGE RATE     : 0.60         FERT. FACTOR : 1.00 
                                                                                
 Maize      CULTIVAR :CI0003-FNC3056            ECOTYPE :IB0001                 
 P1     : 233.00  P2     : 0.5000  P5     : 976.00                              
 G2     : 956.00  G3     :  7.500  PHINT  : 45.600                              


*SIMULATED CROP AND SOIL STATUS AT MAIN DEVELOPMENT STAGES

 RUN NO.     5     P08/03                  

        CROP GROWTH     BIOMASS         LEAF   CROP N     STRESS      STRESS                                           
   DATE  AGE STAGE        kg/ha    LAI   NUM  kg/ha  %   H2O  Nitr Phos1 Phos2  RSTG                                   
 ------  --- ----------   -----  -----  ----  ---  ---  ----  ----  ----  ----  ----                                   
  4 JUL    0 Start Sim        0   0.00   0.0    0  0.0  0.00  0.00  0.00  0.00     7
  3 AUG    0 Sowing           0   0.00   0.0    0  0.0  0.00  0.00  0.00  0.00     8
  4 AUG    1 Germinate        0   0.00   0.0    0  0.0  0.00  0.00  0.00  0.00     9
  8 AUG    5 Emergence       25   0.00   2.1    1  4.4  0.00  0.01  0.00  0.00     1
 19 AUG   16 End Juveni     138   0.29   7.9    5  3.5  0.04  0.00  0.00  0.00     2
 26 AUG   23 Floral Ini     471   0.79  11.0   17  3.6  0.13  0.00  0.00  0.00     3
 27 SEP   55 75% Silkin    4197   1.75  22.6   85  2.0  0.45  0.00  0.00  0.00     4
  5 OCT   63 Beg Gr Fil    4891   1.41  22.6   86  1.8  0.68  0.00  0.00  0.00     5
 12 NOV  101 End Gr Fil    6915   0.46  22.6   86  1.2  0.66  0.00  0.00  0.00     6
 14 NOV  103 Maturity      6915   0.46  22.6   86  1.2  0.00  0.00  0.00  0.00    10
 14 NOV  103 Harvest       6915   0.46  22.6   86  1.2  0.00  0.00  0.00  0.00    10


*MAIN GROWTH AND DEVELOPMENT VARIABLES

@     VARIABLE                                         SIMULATED     MEASURED
      --------                                         ---------     --------
      Anthesis day (dap)                                      55          -99
      Physiological maturity day (dap)                       103          -99
      Yield at harvest maturity (kg [dm]/ha)                2648          -99
      Number at maturity (no/m2)                            1602          -99
      Unit wt at maturity (g [dm]/unit)                   0.1653          -99
      Number at maturity (no/unit)                         258.4          -99
      Tops weight at maturity (kg [dm]/ha)                  6915          -99
      By-product produced (stalk) at maturity (kg[dm]/ha    4311          -99
      Leaf area index, maximum                              1.77          -99
      Harvest index at maturity                            0.383          -99
      Grain N at maturity (kg/ha)                             49          -99
      Tops N at maturity (kg/ha)                              86          -99
      Stem N at maturity (kg/ha)                              37          -99
      Grain N at maturity (%)                                1.8          -99
      Tops weight at anthesis (kg [dm]/ha)                  4020          -99
      Tops N at anthesis (kg/ha)                              82          -99
      Leaf number per stem at maturity                     22.65          -99
      Emergence day (dap)                                      5          -99


*ENVIRONMENTAL AND STRESS FACTORS

 |-----Development Phase------|--------------------------------------Environment--------------------------------------|-----------------Stress-----------------|
                              |---------------Average--------------|-----Cumulative-----|--------Count of days--------|          (0=Min, 1=Max Stress)         |
                         Time  Temp  Temp  Temp Solar Photop                Evapo    Pot TMIN TMIN TMAX TMAX TMAX RAIN|----Water----|---Nitrogen--|-Phosphorus-|
                         Span   Max   Min  Mean   Rad  [day]    CO2   Rain  Trans     ET   <    <    >    >    >    >   Photo         Photo         Photo
                         days    邂    邂    邂 MJ/m2     hr    ppm     mm     mm     mm  0邂  2邂 30邂 32邂 34邂  0mm  synth Growth  synth Growth  synth Growth
----------------------------------------------------------------------------------------------------------------------------------------------------------------
 Emergence-End Juvenile    11  34.3  22.4  28.3  18.7  24.00  387.5    9.7    6.5   61.3    0    0   11    9    7    2  0.000  0.012  0.002  0.006  0.000  0.000
 End Juvenil-Floral Init    7  33.9  22.0  27.9  19.6  24.00  387.7   25.0   21.0   38.8    0    0    7    7    3    3  0.076  0.177  0.001  0.002  0.000  0.000
 Floral Init-End Lf Grow   32  35.2  22.0  28.6  21.3  16.23  387.7  149.9   97.9  190.6    0    0   31   29   23    7  0.365  0.437  0.000  0.000  0.000  0.000
 End Lf Grth-Beg Grn Fil    8  36.4  22.6  29.5  21.4   8.56  387.9    0.4   19.2   49.2    0    0    8    8    8    1  0.497  0.666  0.000  0.000  0.000  0.000
 Grain Filling Phase       38  33.9  22.2  28.1  18.8   1.10  388.0   52.0   62.3  198.7    0    0   37   30   17   15  0.591  0.675  0.000  0.000  0.000  0.000


 Planting to Harvest      103  34.5  22.2  28.4  19.7  11.47  387.8  237.0  211.9  572.8    0    0  100   88   62   28  0.375  0.450  0.000  0.001  0.000  0.000
----------------------------------------------------------------------------------------------------------------------------------------------------------------


*Resource Productivity
 Growing season length: 103 days 

 Precipitation during growing season       237.0 mm[rain]
   Dry Matter Productivity                  2.92 kg[DM]/m3[rain]          =   29.2 kg[DM]/ha per mm[rain]
   Yield Productivity                       1.12 kg[grain yield]/m3[rain] =   11.2 kg[yield]/ha per mm[rain]

 Evapotranspiration during growing season  211.9 mm[ET]
   Dry Matter Productivity                  3.26 kg[DM]/m3[ET]            =   32.6 kg[DM]/ha per mm[ET]
   Yield Productivity                       1.25 kg[grain yield]/m3[ET]   =   12.5 kg[yield]/ha per mm[ET]

 Transpiration during growing season       130.1 mm[EP]
   Dry Matter Productivity                  5.31 kg[DM]/m3[EP]            =   53.1 kg[DM]/ha per mm[EP]
   Yield Productivity                       2.03 kg[grain yield]/m3[EP]   =   20.3 kg[yield]/ha per mm[EP]

 N applied during growing season            162. kg[N applied]/ha
   Dry Matter Productivity                  42.7 kg[DM]/kg[N applied]
   Yield Productivity                       16.3 kg[yield]/kg[N applied]

 N uptake during growing season               94 kg[N uptake]/ha
   Dry Matter Productivity                  73.6 kg[DM]/kg[N uptake]
   Yield Productivity                       28.2 kg[yield]/kg[N uptake]

--------------------------------------------------------------------------------------------------------------

                     Maize YIELD :     2648 kg/ha    [Dry weight] 

**************************************************************************************************************

*DSSAT Cropping System Model Ver. 4.6.1.000 -release      OCT 24, 2017; 11:03:40
                                                                                
*RUN   6        : P08/08                    MZCER046 ANES2009    6              
 MODEL          : MZCER046 - Maize                                              
 EXPERIMENT     : ANES2009 MZ  MZ Analisis a침os de bajo rendimiento Espinal    
 DATA PATH      : C:\DSSAT46\maize\                                             
 TREATMENT  6   : P08/08                    MZCER046                            
                                                                                
                                                                                
 CROP           : Maize            CULTIVAR : FNC3056          ECOTYPE :IB0001  
 STARTING DATE  : JUL  9 2009                                                   
 PLANTING DATE  : AUG  8 2009        PLANTS/m2 :  6.2     ROW SPACING :  80.cm  
 WEATHER        : CNAT   2009                                                   
 SOIL           : CCESPI2017     TEXTURE : SL    -   Suelo Espinal Calibraci    
 SOIL INITIAL C : DEPTH:100cm EXTR. H2O: 83.6mm  NO3:  0.0kg/ha  NH4:  0.0kg/ha 
 WATER BALANCE  : RAINFED                                                       
 IRRIGATION     : NOT IRRIGATED                                                 
 NITROGEN BAL.  : SOIL-N & N-UPTAKE SIMULATION; NO N-FIXATION                   
 N-FERTILIZER   :      162 kg/ha IN     6 APPLICATIONS                          
 RESIDUE/MANURE : INITIAL :     0 kg/ha ;       0 kg/ha IN     0 APPLICATIONS   
 ENVIRONM. OPT. : DAYL=    0.00  SRAD=    0.00  TMAX=    0.00  TMIN=    0.00    
                  RAIN=    0.00  CO2 =    0.00  DEW =    0.00  WIND=    0.00    
 SIMULATION OPT : WATER   :Y  NITROGEN:Y  N-FIX:N  PHOSPH :N  PESTS  :N         
                  PHOTO   :C  ET      :R  INFIL:S  HYDROL :R  SOM    :G         
                  CO2 387ppm  NSWIT   :1  EVAP :S  SOIL   :2  STEMP  :D         
 MANAGEMENT OPT : PLANTING:R  IRRIG   :N  FERT :D  RESIDUE:R  HARVEST:M         
                  WEATHER :M  TILLAGE :N                                        
                                                                                
*SUMMARY OF SOIL AND GENETIC INPUT PARAMETERS                                   
                                                                                
   SOIL LOWER UPPER   SAT  EXTR  INIT   ROOT   BULK     pH    NO3    NH4    ORG 
  DEPTH LIMIT LIMIT    SW    SW    SW   DIST   DENS                          C  
   cm   cm3/cm3    cm3/cm3    cm3/cm3         g/cm3         ugN/g  ugN/g     %  
------------------------------------------------------------------------------- 
  0-  5 0.160 0.252 0.376 0.092 0.252   1.00   1.69   6.60   0.00   0.00   0.45 
  5- 15 0.160 0.252 0.376 0.092 0.252   1.00   1.69   6.60   0.00   0.00   0.45 
 15- 30 0.160 0.252 0.376 0.092 0.252   1.00   1.69   6.60   0.00   0.00   0.45 
 30- 53 0.120 0.200 0.440 0.080 0.200   0.27   1.40   7.10   0.00   0.00   0.17 
 53- 77 0.120 0.200 0.440 0.080 0.200   0.27   1.40   7.10   0.00   0.00   0.17 
 77-100 0.120 0.200 0.440 0.080 0.200   0.27   1.40   7.10   0.00   0.00   0.17 
                                                                                
TOT-100  13.2  21.6  42.1   8.4  21.6  <--cm   -  kg/ha-->    0.0    0.0  39475 
SOIL ALBEDO    : 0.09      EVAPORATION LIMIT : 6.00         MIN. FACTOR  : 1.00 
RUNOFF CURVE # :76.00      DRAINAGE RATE     : 0.60         FERT. FACTOR : 1.00 
                                                                                
 Maize      CULTIVAR :CI0003-FNC3056            ECOTYPE :IB0001                 
 P1     : 233.00  P2     : 0.5000  P5     : 976.00                              
 G2     : 956.00  G3     :  7.500  PHINT  : 45.600                              


*SIMULATED CROP AND SOIL STATUS AT MAIN DEVELOPMENT STAGES

 RUN NO.     6     P08/08                  

        CROP GROWTH     BIOMASS         LEAF   CROP N     STRESS      STRESS                                           
   DATE  AGE STAGE        kg/ha    LAI   NUM  kg/ha  %   H2O  Nitr Phos1 Phos2  RSTG                                   
 ------  --- ----------   -----  -----  ----  ---  ---  ----  ----  ----  ----  ----                                   
  9 JUL    0 Start Sim        0   0.00   0.0    0  0.0  0.00  0.00  0.00  0.00     7
  8 AUG    0 Sowing           0   0.00   0.0    0  0.0  0.00  0.00  0.00  0.00     8
  9 AUG    1 Germinate        0   0.00   0.0    0  0.0  0.00  0.00  0.00  0.00     9
 13 AUG    5 Emergence       25   0.00   2.2    1  4.4  0.00  0.01  0.00  0.00     1
 24 AUG   16 End Juveni     132   0.28   7.9    4  3.2  0.10  0.00  0.00  0.00     2
 30 AUG   22 Floral Ini     464   0.79  10.6   17  3.6  0.00  0.00  0.00  0.00     3
 30 SEP   53 75% Silkin    4292   1.89  21.8   87  2.0  0.44  0.00  0.00  0.00     4
  8 OCT   61 Beg Gr Fil    4855   1.47  21.8   88  1.8  0.75  0.00  0.00  0.00     5
 15 NOV   99 End Gr Fil    6879   0.50  21.8   88  1.3  0.65  0.00  0.00  0.00     6
 17 NOV  101 Maturity      6879   0.50  21.8   88  1.3  0.83  0.00  0.00  0.00    10
 17 NOV  101 Harvest       6879   0.50  21.8   88  1.3  0.00  0.00  0.00  0.00    10


*MAIN GROWTH AND DEVELOPMENT VARIABLES

@     VARIABLE                                         SIMULATED     MEASURED
      --------                                         ---------     --------
      Anthesis day (dap)                                      53          -99
      Physiological maturity day (dap)                       101          -99
      Yield at harvest maturity (kg [dm]/ha)                2534          -99
      Number at maturity (no/m2)                            1477          -99
      Unit wt at maturity (g [dm]/unit)                   0.1716          -99
      Number at maturity (no/unit)                         238.2          -99
      Tops weight at maturity (kg [dm]/ha)                  6879          -99
      By-product produced (stalk) at maturity (kg[dm]/ha    4389          -99
      Leaf area index, maximum                              1.93          -99
      Harvest index at maturity                            0.368          -99
      Grain N at maturity (kg/ha)                             46          -99
      Tops N at maturity (kg/ha)                              88          -99
      Stem N at maturity (kg/ha)                              41          -99
      Grain N at maturity (%)                                1.8          -99
      Tops weight at anthesis (kg [dm]/ha)                  4112          -99
      Tops N at anthesis (kg/ha)                              84          -99
      Leaf number per stem at maturity                     21.84          -99
      Emergence day (dap)                                      5          -99


*ENVIRONMENTAL AND STRESS FACTORS

 |-----Development Phase------|--------------------------------------Environment--------------------------------------|-----------------Stress-----------------|
                              |---------------Average--------------|-----Cumulative-----|--------Count of days--------|          (0=Min, 1=Max Stress)         |
                         Time  Temp  Temp  Temp Solar Photop                Evapo    Pot TMIN TMIN TMAX TMAX TMAX RAIN|----Water----|---Nitrogen--|-Phosphorus-|
                         Span   Max   Min  Mean   Rad  [day]    CO2   Rain  Trans     ET   <    <    >    >    >    >   Photo         Photo         Photo
                         days    邂    邂    邂 MJ/m2     hr    ppm     mm     mm     mm  0邂  2邂 30邂 32邂 34邂  0mm  synth Growth  synth Growth  synth Growth
----------------------------------------------------------------------------------------------------------------------------------------------------------------
 Emergence-End Juvenile    11  34.1  22.9  28.5  18.6  24.00  387.6   34.7   14.3   60.8    0    0   11   10    6    5  0.014  0.095  0.002  0.005  0.000  0.000
 End Juvenil-Floral Init    6  33.6  20.9  27.2  20.4  23.87  387.7    0.0   16.4   34.4    0    0    5    5    3    0  0.000  0.000  0.001  0.002  0.000  0.000
 Floral Init-End Lf Grow   31  35.5  22.2  28.8  21.4  14.61  387.8  149.9  101.8  188.3    0    0   31   29   23    7  0.336  0.421  0.000  0.000  0.000  0.000
 End Lf Grth-Beg Grn Fil    8  36.2  23.0  29.6  20.9   7.38  387.9    0.4   17.1   47.5    0    0    8    8    7    1  0.570  0.714  0.000  0.000  0.000  0.000
 Grain Filling Phase       38  33.6  22.2  27.9  18.4   0.60  388.0   52.0   62.6  193.1    0    0   36   29   15   15  0.577  0.647  0.000  0.000  0.000  0.000


 Planting to Harvest      101  34.5  22.2  28.3  19.7  10.51  387.9  237.5  215.4  563.1    0    0   98   87   59   29  0.381  0.455  0.000  0.001  0.000  0.000
----------------------------------------------------------------------------------------------------------------------------------------------------------------


*Resource Productivity
 Growing season length: 101 days 

 Precipitation during growing season       237.5 mm[rain]
   Dry Matter Productivity                  2.90 kg[DM]/m3[rain]          =   29.0 kg[DM]/ha per mm[rain]
   Yield Productivity                       1.07 kg[grain yield]/m3[rain] =   10.7 kg[yield]/ha per mm[rain]

 Evapotranspiration during growing season  215.4 mm[ET]
   Dry Matter Productivity                  3.19 kg[DM]/m3[ET]            =   31.9 kg[DM]/ha per mm[ET]
   Yield Productivity                       1.18 kg[grain yield]/m3[ET]   =   11.8 kg[yield]/ha per mm[ET]

 Transpiration during growing season       128.5 mm[EP]
   Dry Matter Productivity                  5.35 kg[DM]/m3[EP]            =   53.5 kg[DM]/ha per mm[EP]
   Yield Productivity                       1.97 kg[grain yield]/m3[EP]   =   19.7 kg[yield]/ha per mm[EP]

 N applied during growing season            162. kg[N applied]/ha
   Dry Matter Productivity                  42.5 kg[DM]/kg[N applied]
   Yield Productivity                       15.6 kg[yield]/kg[N applied]

 N uptake during growing season               96 kg[N uptake]/ha
   Dry Matter Productivity                  71.7 kg[DM]/kg[N uptake]
   Yield Productivity                       26.4 kg[yield]/kg[N uptake]

--------------------------------------------------------------------------------------------------------------

                     Maize YIELD :     2534 kg/ha    [Dry weight] 

**************************************************************************************************************

*DSSAT Cropping System Model Ver. 4.6.1.000 -release      OCT 24, 2017; 11:03:40
                                                                                
*RUN   7        : P08/13                    MZCER046 ANES2009    7              
 MODEL          : MZCER046 - Maize                                              
 EXPERIMENT     : ANES2009 MZ  MZ Analisis a침os de bajo rendimiento Espinal    
 DATA PATH      : C:\DSSAT46\maize\                                             
 TREATMENT  7   : P08/13                    MZCER046                            
                                                                                
                                                                                
 CROP           : Maize            CULTIVAR : FNC3056          ECOTYPE :IB0001  
 STARTING DATE  : JUL 14 2009                                                   
 PLANTING DATE  : AUG 13 2009        PLANTS/m2 :  6.2     ROW SPACING :  80.cm  
 WEATHER        : CNAT   2009                                                   
 SOIL           : CCESPI2017     TEXTURE : SL    -   Suelo Espinal Calibraci    
 SOIL INITIAL C : DEPTH:100cm EXTR. H2O: 83.6mm  NO3:  0.0kg/ha  NH4:  0.0kg/ha 
 WATER BALANCE  : RAINFED                                                       
 IRRIGATION     : NOT IRRIGATED                                                 
 NITROGEN BAL.  : SOIL-N & N-UPTAKE SIMULATION; NO N-FIXATION                   
 N-FERTILIZER   :      162 kg/ha IN     6 APPLICATIONS                          
 RESIDUE/MANURE : INITIAL :     0 kg/ha ;       0 kg/ha IN     0 APPLICATIONS   
 ENVIRONM. OPT. : DAYL=    0.00  SRAD=    0.00  TMAX=    0.00  TMIN=    0.00    
                  RAIN=    0.00  CO2 =    0.00  DEW =    0.00  WIND=    0.00    
 SIMULATION OPT : WATER   :Y  NITROGEN:Y  N-FIX:N  PHOSPH :N  PESTS  :N         
                  PHOTO   :C  ET      :R  INFIL:S  HYDROL :R  SOM    :G         
                  CO2 387ppm  NSWIT   :1  EVAP :S  SOIL   :2  STEMP  :D         
 MANAGEMENT OPT : PLANTING:R  IRRIG   :N  FERT :D  RESIDUE:R  HARVEST:M         
                  WEATHER :M  TILLAGE :N                                        
                                                                                
*SUMMARY OF SOIL AND GENETIC INPUT PARAMETERS                                   
                                                                                
   SOIL LOWER UPPER   SAT  EXTR  INIT   ROOT   BULK     pH    NO3    NH4    ORG 
  DEPTH LIMIT LIMIT    SW    SW    SW   DIST   DENS                          C  
   cm   cm3/cm3    cm3/cm3    cm3/cm3         g/cm3         ugN/g  ugN/g     %  
------------------------------------------------------------------------------- 
  0-  5 0.160 0.252 0.376 0.092 0.252   1.00   1.69   6.60   0.00   0.00   0.45 
  5- 15 0.160 0.252 0.376 0.092 0.252   1.00   1.69   6.60   0.00   0.00   0.45 
 15- 30 0.160 0.252 0.376 0.092 0.252   1.00   1.69   6.60   0.00   0.00   0.45 
 30- 53 0.120 0.200 0.440 0.080 0.200   0.27   1.40   7.10   0.00   0.00   0.17 
 53- 77 0.120 0.200 0.440 0.080 0.200   0.27   1.40   7.10   0.00   0.00   0.17 
 77-100 0.120 0.200 0.440 0.080 0.200   0.27   1.40   7.10   0.00   0.00   0.17 
                                                                                
TOT-100  13.2  21.6  42.1   8.4  21.6  <--cm   -  kg/ha-->    0.0    0.0  39475 
SOIL ALBEDO    : 0.09      EVAPORATION LIMIT : 6.00         MIN. FACTOR  : 1.00 
RUNOFF CURVE # :76.00      DRAINAGE RATE     : 0.60         FERT. FACTOR : 1.00 
                                                                                
 Maize      CULTIVAR :CI0003-FNC3056            ECOTYPE :IB0001                 
 P1     : 233.00  P2     : 0.5000  P5     : 976.00                              
 G2     : 956.00  G3     :  7.500  PHINT  : 45.600                              


*SIMULATED CROP AND SOIL STATUS AT MAIN DEVELOPMENT STAGES

 RUN NO.     7     P08/13                  

        CROP GROWTH     BIOMASS         LEAF   CROP N     STRESS      STRESS                                           
   DATE  AGE STAGE        kg/ha    LAI   NUM  kg/ha  %   H2O  Nitr Phos1 Phos2  RSTG                                   
 ------  --- ----------   -----  -----  ----  ---  ---  ----  ----  ----  ----  ----                                   
 14 JUL    0 Start Sim        0   0.00   0.0    0  0.0  0.00  0.00  0.00  0.00     7
 13 AUG    0 Sowing           0   0.00   0.0    0  0.0  0.00  0.00  0.00  0.00     8
 14 AUG    1 Germinate        0   0.00   0.0    0  0.0  0.00  0.00  0.00  0.00     9
 18 AUG    5 Emergence       25   0.00   2.2    1  4.4  0.00  0.01  0.00  0.00     1
 29 AUG   16 End Juveni     140   0.29   7.8    5  3.2  0.00  0.00  0.00  0.00     2
  3 SEP   21 Floral Ini     333   0.58  10.2   13  3.8  0.24  0.00  0.00  0.00     3
  3 OCT   51 75% Silkin    3830   1.73  21.0   77  2.0  0.46  0.00  0.00  0.00     4
 11 OCT   59 Beg Gr Fil    4370   1.35  21.0   79  1.8  0.74  0.00  0.00  0.00     5
 18 NOV   97 End Gr Fil    6342   0.47  21.0   79  1.2  0.64  0.00  0.00  0.00     6
 20 NOV   99 Maturity      6342   0.47  21.0   79  1.2  0.87  0.00  0.00  0.00    10
 20 NOV   99 Harvest       6342   0.47  21.0   79  1.2  0.00  0.00  0.00  0.00    10


*MAIN GROWTH AND DEVELOPMENT VARIABLES

@     VARIABLE                                         SIMULATED     MEASURED
      --------                                         ---------     --------
      Anthesis day (dap)                                      51          -99
      Physiological maturity day (dap)                        99          -99
      Yield at harvest maturity (kg [dm]/ha)                2417          -99
      Number at maturity (no/m2)                            1373          -99
      Unit wt at maturity (g [dm]/unit)                   0.1760          -99
      Number at maturity (no/unit)                         221.5          -99
      Tops weight at maturity (kg [dm]/ha)                  6342          -99
      By-product produced (stalk) at maturity (kg[dm]/ha    3965          -99
      Leaf area index, maximum                              1.80          -99
      Harvest index at maturity                            0.381          -99
      Grain N at maturity (kg/ha)                             44          -99
      Tops N at maturity (kg/ha)                              79          -99
      Stem N at maturity (kg/ha)                              35          -99
      Grain N at maturity (%)                                1.8          -99
      Tops weight at anthesis (kg [dm]/ha)                  3687          -99
      Tops N at anthesis (kg/ha)                              77          -99
      Leaf number per stem at maturity                     20.98          -99
      Emergence day (dap)                                      5          -99


*ENVIRONMENTAL AND STRESS FACTORS

 |-----Development Phase------|--------------------------------------Environment--------------------------------------|-----------------Stress-----------------|
                              |---------------Average--------------|-----Cumulative-----|--------Count of days--------|          (0=Min, 1=Max Stress)         |
                         Time  Temp  Temp  Temp Solar Photop                Evapo    Pot TMIN TMIN TMAX TMAX TMAX RAIN|----Water----|---Nitrogen--|-Phosphorus-|
                         Span   Max   Min  Mean   Rad  [day]    CO2   Rain  Trans     ET   <    <    >    >    >    >   Photo         Photo         Photo
                         days    邂    邂    邂 MJ/m2     hr    ppm     mm     mm     mm  0邂  2邂 30邂 32邂 34邂  0mm  synth Growth  synth Growth  synth Growth
----------------------------------------------------------------------------------------------------------------------------------------------------------------
 Emergence-End Juvenile    11  33.7  21.8  27.7  19.5  24.00  387.7   25.0   24.9   62.9    0    0   10   10    5    3  0.000  0.000  0.002  0.005  0.000  0.000
 End Juvenil-Floral Init    5  35.2  22.2  28.7  21.4  20.99  387.7    0.8   10.1   31.5    0    0    5    5    4    1  0.000  0.114  0.000  0.001  0.000  0.000
 Floral Init-End Lf Grow   30  35.7  22.1  28.9  21.5  13.21  387.8  149.1   96.1  185.7    0    0   30   28   23    6  0.357  0.466  0.000  0.000  0.000  0.000
 End Lf Grth-Beg Grn Fil    8  36.1  22.7  29.4  20.6   6.06  387.9    0.4   15.3   46.8    0    0    8    8    7    1  0.557  0.705  0.000  0.000  0.000  0.000
 Grain Filling Phase       38  33.3  22.3  27.8  18.0   0.22  388.1   52.9   64.2  187.0    0    0   36   28   13   17  0.558  0.635  0.000  0.000  0.000  0.000


 Planting to Harvest       99  34.4  22.3  28.3  19.6   9.51  387.9  237.9  214.6  552.1    0    0   96   85   55   30  0.383  0.465  0.000  0.001  0.000  0.000
----------------------------------------------------------------------------------------------------------------------------------------------------------------


*Resource Productivity
 Growing season length:  99 days 

 Precipitation during growing season       237.9 mm[rain]
   Dry Matter Productivity                  2.67 kg[DM]/m3[rain]          =   26.7 kg[DM]/ha per mm[rain]
   Yield Productivity                       1.02 kg[grain yield]/m3[rain] =   10.2 kg[yield]/ha per mm[rain]

 Evapotranspiration during growing season  214.6 mm[ET]
   Dry Matter Productivity                  2.96 kg[DM]/m3[ET]            =   29.6 kg[DM]/ha per mm[ET]
   Yield Productivity                       1.13 kg[grain yield]/m3[ET]   =   11.3 kg[yield]/ha per mm[ET]

 Transpiration during growing season       119.7 mm[EP]
   Dry Matter Productivity                  5.30 kg[DM]/m3[EP]            =   53.0 kg[DM]/ha per mm[EP]
   Yield Productivity                       2.02 kg[grain yield]/m3[EP]   =   20.2 kg[yield]/ha per mm[EP]

 N applied during growing season            162. kg[N applied]/ha
   Dry Matter Productivity                  39.1 kg[DM]/kg[N applied]
   Yield Productivity                       14.9 kg[yield]/kg[N applied]

 N uptake during growing season               86 kg[N uptake]/ha
   Dry Matter Productivity                  73.7 kg[DM]/kg[N uptake]
   Yield Productivity                       28.1 kg[yield]/kg[N uptake]

--------------------------------------------------------------------------------------------------------------

                     Maize YIELD :     2417 kg/ha    [Dry weight] 

**************************************************************************************************************

*DSSAT Cropping System Model Ver. 4.6.1.000 -release      OCT 24, 2017; 11:03:40
                                                                                
*RUN   8        : P08/18                    MZCER046 ANES2009    8              
 MODEL          : MZCER046 - Maize                                              
 EXPERIMENT     : ANES2009 MZ  MZ Analisis a침os de bajo rendimiento Espinal    
 DATA PATH      : C:\DSSAT46\maize\                                             
 TREATMENT  8   : P08/18                    MZCER046                            
                                                                                
                                                                                
 CROP           : Maize            CULTIVAR : FNC3056          ECOTYPE :IB0001  
 STARTING DATE  : JUL 19 2009                                                   
 PLANTING DATE  : AUG 18 2009        PLANTS/m2 :  6.2     ROW SPACING :  80.cm  
 WEATHER        : CNAT   2009                                                   
 SOIL           : CCESPI2017     TEXTURE : SL    -   Suelo Espinal Calibraci    
 SOIL INITIAL C : DEPTH:100cm EXTR. H2O: 83.6mm  NO3:  0.0kg/ha  NH4:  0.0kg/ha 
 WATER BALANCE  : RAINFED                                                       
 IRRIGATION     : NOT IRRIGATED                                                 
 NITROGEN BAL.  : SOIL-N & N-UPTAKE SIMULATION; NO N-FIXATION                   
 N-FERTILIZER   :      162 kg/ha IN     6 APPLICATIONS                          
 RESIDUE/MANURE : INITIAL :     0 kg/ha ;       0 kg/ha IN     0 APPLICATIONS   
 ENVIRONM. OPT. : DAYL=    0.00  SRAD=    0.00  TMAX=    0.00  TMIN=    0.00    
                  RAIN=    0.00  CO2 =    0.00  DEW =    0.00  WIND=    0.00    
 SIMULATION OPT : WATER   :Y  NITROGEN:Y  N-FIX:N  PHOSPH :N  PESTS  :N         
                  PHOTO   :C  ET      :R  INFIL:S  HYDROL :R  SOM    :G         
                  CO2 387ppm  NSWIT   :1  EVAP :S  SOIL   :2  STEMP  :D         
 MANAGEMENT OPT : PLANTING:R  IRRIG   :N  FERT :D  RESIDUE:R  HARVEST:M         
                  WEATHER :M  TILLAGE :N                                        
                                                                                
*SUMMARY OF SOIL AND GENETIC INPUT PARAMETERS                                   
                                                                                
   SOIL LOWER UPPER   SAT  EXTR  INIT   ROOT   BULK     pH    NO3    NH4    ORG 
  DEPTH LIMIT LIMIT    SW    SW    SW   DIST   DENS                          C  
   cm   cm3/cm3    cm3/cm3    cm3/cm3         g/cm3         ugN/g  ugN/g     %  
------------------------------------------------------------------------------- 
  0-  5 0.160 0.252 0.376 0.092 0.252   1.00   1.69   6.60   0.00   0.00   0.45 
  5- 15 0.160 0.252 0.376 0.092 0.252   1.00   1.69   6.60   0.00   0.00   0.45 
 15- 30 0.160 0.252 0.376 0.092 0.252   1.00   1.69   6.60   0.00   0.00   0.45 
 30- 53 0.120 0.200 0.440 0.080 0.200   0.27   1.40   7.10   0.00   0.00   0.17 
 53- 77 0.120 0.200 0.440 0.080 0.200   0.27   1.40   7.10   0.00   0.00   0.17 
 77-100 0.120 0.200 0.440 0.080 0.200   0.27   1.40   7.10   0.00   0.00   0.17 
                                                                                
TOT-100  13.2  21.6  42.1   8.4  21.6  <--cm   -  kg/ha-->    0.0    0.0  39475 
SOIL ALBEDO    : 0.09      EVAPORATION LIMIT : 6.00         MIN. FACTOR  : 1.00 
RUNOFF CURVE # :76.00      DRAINAGE RATE     : 0.60         FERT. FACTOR : 1.00 
                                                                                
 Maize      CULTIVAR :CI0003-FNC3056            ECOTYPE :IB0001                 
 P1     : 233.00  P2     : 0.5000  P5     : 976.00                              
 G2     : 956.00  G3     :  7.500  PHINT  : 45.600                              


*SIMULATED CROP AND SOIL STATUS AT MAIN DEVELOPMENT STAGES

 RUN NO.     8     P08/18                  

        CROP GROWTH     BIOMASS         LEAF   CROP N     STRESS      STRESS                                           
   DATE  AGE STAGE        kg/ha    LAI   NUM  kg/ha  %   H2O  Nitr Phos1 Phos2  RSTG                                   
 ------  --- ----------   -----  -----  ----  ---  ---  ----  ----  ----  ----  ----                                   
 19 JUL    0 Start Sim        0   0.00   0.0    0  0.0  0.00  0.00  0.00  0.00     7
 18 AUG    0 Sowing           0   0.00   0.0    0  0.0  0.00  0.00  0.00  0.00     8
 19 AUG    1 Germinate        0   0.00   0.0    0  0.0  0.00  0.00  0.00  0.00     9
 23 AUG    5 Emergence       25   0.00   2.2    1  4.4  0.00  0.01  0.00  0.00     1
  3 SEP   16 End Juveni     150   0.31   7.9    5  3.2  0.00  0.00  0.00  0.00     2
  8 SEP   21 Floral Ini     418   0.72  10.2   15  3.6  0.00  0.00  0.00  0.00     3
  7 OCT   50 75% Silkin    4165   2.01  21.1   89  2.1  0.47  0.00  0.00  0.00     4
 16 OCT   59 Beg Gr Fil    4618   1.47  21.1   90  1.9  0.75  0.00  0.00  0.00     5
 23 NOV   97 End Gr Fil    6186   0.44  21.1   90  1.4  0.71  0.00  0.00  0.00     6
 25 NOV   99 Maturity      6186   0.44  21.1   90  1.4  0.00  0.00  0.00  0.00    10
 25 NOV   99 Harvest       6186   0.44  21.1   90  1.4  0.00  0.00  0.00  0.00    10


*MAIN GROWTH AND DEVELOPMENT VARIABLES

@     VARIABLE                                         SIMULATED     MEASURED
      --------                                         ---------     --------
      Anthesis day (dap)                                      50          -99
      Physiological maturity day (dap)                        99          -99
      Yield at harvest maturity (kg [dm]/ha)                1962          -99
      Number at maturity (no/m2)                            1203          -99
[...]
 WATER BALANCE  : RAINFED                                                       
 IRRIGATION     : NOT IRRIGATED                                                 
 NITROGEN BAL.  : SOIL-N & N-UPTAKE SIMULATION; NO N-FIXATION                   
 N-FERTILIZER   :      162 kg/ha IN     6 APPLICATIONS                          
 RESIDUE/MANURE : INITIAL :     0 kg/ha ;       0 kg/ha IN     0 APPLICATIONS   
 ENVIRONM. OPT. : DAYL=    0.00  SRAD=    0.00  TMAX=    0.00  TMIN=    0.00    
                  RAIN=    0.00  CO2 =    0.00  DEW =    0.00  WIND=    0.00    
 SIMULATION OPT : WATER   :Y  NITROGEN:Y  N-FIX:N  PHOSPH :N  PESTS  :N         
                  PHOTO   :C  ET      :R  INFIL:S  HYDROL :R  SOM    :G         
                  CO2 388ppm  NSWIT   :1  EVAP :S  SOIL   :2  STEMP  :D         
 MANAGEMENT OPT : PLANTING:R  IRRIG   :N  FERT :D  RESIDUE:R  HARVEST:M         
                  WEATHER :M  TILLAGE :N                                        
                                                                                
*SUMMARY OF SOIL AND GENETIC INPUT PARAMETERS                                   
                                                                                
   SOIL LOWER UPPER   SAT  EXTR  INIT   ROOT   BULK     pH    NO3    NH4    ORG 
  DEPTH LIMIT LIMIT    SW    SW    SW   DIST   DENS                          C  
   cm   cm3/cm3    cm3/cm3    cm3/cm3         g/cm3         ugN/g  ugN/g     %  
------------------------------------------------------------------------------- 
  0-  5 0.160 0.252 0.376 0.092 0.252   1.00   1.69   6.60   0.00   0.00   0.45 
  5- 15 0.160 0.252 0.376 0.092 0.252   1.00   1.69   6.60   0.00   0.00   0.45 
 15- 30 0.160 0.252 0.376 0.092 0.252   1.00   1.69   6.60   0.00   0.00   0.45 
 30- 53 0.120 0.200 0.440 0.080 0.200   0.27   1.40   7.10   0.00   0.00   0.17 
 53- 77 0.120 0.200 0.440 0.080 0.200   0.27   1.40   7.10   0.00   0.00   0.17 
 77-100 0.120 0.200 0.440 0.080 0.200   0.27   1.40   7.10   0.00   0.00   0.17 
                                                                                
TOT-100  13.2  21.6  42.1   8.4  21.6  <--cm   -  kg/ha-->    0.0    0.0  39475 
SOIL ALBEDO    : 0.09      EVAPORATION LIMIT : 6.00         MIN. FACTOR  : 1.00 
RUNOFF CURVE # :76.00      DRAINAGE RATE     : 0.60         FERT. FACTOR : 1.00 
                                                                                
 Maize      CULTIVAR :CI0003-FNC3056            ECOTYPE :IB0001                 
 P1     : 233.00  P2     : 0.5000  P5     : 976.00                              
 G2     : 956.00  G3     :  7.500  PHINT  : 45.600                              


*SIMULATED CROP AND SOIL STATUS AT MAIN DEVELOPMENT STAGES

 RUN NO.    31     P11/26                  

        CROP GROWTH     BIOMASS         LEAF   CROP N     STRESS      STRESS                                           
   DATE  AGE STAGE        kg/ha    LAI   NUM  kg/ha  %   H2O  Nitr Phos1 Phos2  RSTG                                   
 ------  --- ----------   -----  -----  ----  ---  ---  ----  ----  ----  ----  ----                                   
 26 NOV    0 Start Sim        0   0.00   0.0    0  0.0  0.00  0.00  0.00  0.00     7
 26 DEC    0 Sowing           0   0.00   0.0    0  0.0  0.00  0.00  0.00  0.00     8
 27 DEC    1 Germinate        0   0.00   0.0    0  0.0  0.00  0.00  0.00  0.00     9
 31 DEC    5 Emergence       25   0.00   2.2    1  4.4  0.00  0.01  0.00  0.00     1
 11 JAN   16 End Juveni     146   0.30   7.8    5  3.2  0.00  0.00  0.00  0.00     2
 15 JAN   20 Floral Ini     347   0.62   9.7   13  3.7  0.00  0.00  0.00  0.00     3
 13 FEB   49 75% Silkin    2078   0.93  20.0   27  1.3  0.69  0.28  0.00  0.00     4
 21 FEB   57 Beg Gr Fil    2199   0.68  20.0   28  1.3  0.84  0.42  0.00  0.00     5
 30 MAR   94 End Gr Fil    3309   0.53  20.0   40  1.2  0.20  0.05  0.00  0.00     6
  1 APR   96 Maturity      3309   0.53  20.0   40  1.2  0.00  0.00  0.00  0.00    10
  1 APR   96 Harvest       3309   0.53  20.0   40  1.2  0.00  0.00  0.00  0.00    10


*MAIN GROWTH AND DEVELOPMENT VARIABLES

@     VARIABLE                                         SIMULATED     MEASURED
      --------                                         ---------     --------
      Anthesis day (dap)                                      49          -99
      Physiological maturity day (dap)                        96          -99
      Yield at harvest maturity (kg [dm]/ha)                1029          -99
      Number at maturity (no/m2)                             515          -99
      Unit wt at maturity (g [dm]/unit)                   0.1997          -99
      Number at maturity (no/unit)                          90.9          -99
      Tops weight at maturity (kg [dm]/ha)                  3309          -99
      By-product produced (stalk) at maturity (kg[dm]/ha    2311          -99
      Leaf area index, maximum                              1.32          -99
      Harvest index at maturity                            0.311          -99
      Grain N at maturity (kg/ha)                             18          -99
      Tops N at maturity (kg/ha)                              40          -99
      Stem N at maturity (kg/ha)                              21          -99
      Grain N at maturity (%)                                1.7          -99
      Tops weight at anthesis (kg [dm]/ha)                  2061          -99
      Tops N at anthesis (kg/ha)                              27          -99
      Leaf number per stem at maturity                     20.03          -99
      Emergence day (dap)                                      5          -99


*ENVIRONMENTAL AND STRESS FACTORS

 |-----Development Phase------|--------------------------------------Environment--------------------------------------|-----------------Stress-----------------|
                              |---------------Average--------------|-----Cumulative-----|--------Count of days--------|          (0=Min, 1=Max Stress)         |
                         Time  Temp  Temp  Temp Solar Photop                Evapo    Pot TMIN TMIN TMAX TMAX TMAX RAIN|----Water----|---Nitrogen--|-Phosphorus-|
                         Span   Max   Min  Mean   Rad  [day]    CO2   Rain  Trans     ET   <    <    >    >    >    >   Photo         Photo         Photo
                         days    邂    邂    邂 MJ/m2     hr    ppm     mm     mm     mm  0邂  2邂 30邂 32邂 34邂  0mm  synth Growth  synth Growth  synth Growth
----------------------------------------------------------------------------------------------------------------------------------------------------------------
 Emergence-End Juvenile    11  33.7  22.3  28.0  20.5   0.00  388.5  109.8   33.3   66.1    0    0   11   11    4    4  0.000  0.000  0.002  0.006  0.000  0.000
 End Juvenil-Floral Init    4  34.6  22.5  28.5  21.0   0.00  388.5    0.0    7.6   24.1    0    0    4    4    4    0  0.000  0.000  0.001  0.001  0.000  0.000
 Floral Init-End Lf Grow   29  34.4  22.4  28.4  19.9   0.00  388.8    2.0   44.1  159.6    0    0   27   24   19    3  0.502  0.656  0.106  0.264  0.000  0.000
 End Lf Grth-Beg Grn Fil    8  35.1  23.8  29.4  20.2   0.00  389.0    1.5    7.1   46.0    0    0    8    8    5    2  0.767  0.845  0.175  0.437  0.000  0.000
 Grain Filling Phase       37  34.4  22.9  28.7  19.7   7.29  389.1  495.5  129.9  210.2    0    0   36   32   24   13  0.153  0.222  0.023  0.057  0.000  0.000


 Planting to Harvest       96  34.2  22.6  28.4  19.9   3.12  388.9  608.8  246.7  543.7    0    0   93   83   56   22  0.274  0.354  0.056  0.139  0.000  0.000
----------------------------------------------------------------------------------------------------------------------------------------------------------------


*Resource Productivity
 Growing season length:  96 days 

 Precipitation during growing season       608.8 mm[rain]
   Dry Matter Productivity                  0.54 kg[DM]/m3[rain]          =    5.4 kg[DM]/ha per mm[rain]
   Yield Productivity                       0.17 kg[grain yield]/m3[rain] =    1.7 kg[yield]/ha per mm[rain]

 Evapotranspiration during growing season  246.7 mm[ET]
   Dry Matter Productivity                  1.34 kg[DM]/m3[ET]            =   13.4 kg[DM]/ha per mm[ET]
   Yield Productivity                       0.42 kg[grain yield]/m3[ET]   =    4.2 kg[yield]/ha per mm[ET]

 Transpiration during growing season       111.3 mm[EP]
   Dry Matter Productivity                  2.97 kg[DM]/m3[EP]            =   29.7 kg[DM]/ha per mm[EP]
   Yield Productivity                       0.92 kg[grain yield]/m3[EP]   =    9.2 kg[yield]/ha per mm[EP]

 N applied during growing season            162. kg[N applied]/ha
   Dry Matter Productivity                  20.4 kg[DM]/kg[N applied]
   Yield Productivity                        6.4 kg[yield]/kg[N applied]

 N uptake during growing season               52 kg[N uptake]/ha
   Dry Matter Productivity                  63.6 kg[DM]/kg[N uptake]
   Yield Productivity                       19.8 kg[yield]/kg[N uptake]

--------------------------------------------------------------------------------------------------------------

                     Maize YIELD :     1029 kg/ha    [Dry weight] 

**************************************************************************************************************

*DSSAT Cropping System Model Ver. 4.6.1.000 -release      OCT 24, 2017; 11:03:53
                                                                                
*RUN  32        : P12/31                    MZCER046 ANES2009   32              
 MODEL          : MZCER046 - Maize                                              
 EXPERIMENT     : ANES2009 MZ  MZ Analisis a침os de bajo rendimiento Espinal    
 DATA PATH      : C:\DSSAT46\maize\                                             
 TREATMENT 32   : P12/31                    MZCER046                            
                                                                                
                                                                                
 CROP           : Maize            CULTIVAR : FNC3056          ECOTYPE :IB0001  
 STARTING DATE  : DEC  1 2009                                                   
 PLANTING DATE  : DEC 31 2009        PLANTS/m2 :  6.2     ROW SPACING :  80.cm  
 WEATHER        : CNAT   2009                                                   
 SOIL           : CCESPI2017     TEXTURE : SL    -   Suelo Espinal Calibraci    
 SOIL INITIAL C : DEPTH:100cm EXTR. H2O: 83.6mm  NO3:  0.0kg/ha  NH4:  0.0kg/ha 
 WATER BALANCE  : RAINFED                                                       
 IRRIGATION     : NOT IRRIGATED                                                 
 NITROGEN BAL.  : SOIL-N & N-UPTAKE SIMULATION; NO N-FIXATION                   
 N-FERTILIZER   :      162 kg/ha IN     6 APPLICATIONS                          
 RESIDUE/MANURE : INITIAL :     0 kg/ha ;       0 kg/ha IN     0 APPLICATIONS   
 ENVIRONM. OPT. : DAYL=    0.00  SRAD=    0.00  TMAX=    0.00  TMIN=    0.00    
                  RAIN=    0.00  CO2 =    0.00  DEW =    0.00  WIND=    0.00    
 SIMULATION OPT : WATER   :Y  NITROGEN:Y  N-FIX:N  PHOSPH :N  PESTS  :N         
                  PHOTO   :C  ET      :R  INFIL:S  HYDROL :R  SOM    :G         
                  CO2 388ppm  NSWIT   :1  EVAP :S  SOIL   :2  STEMP  :D         
 MANAGEMENT OPT : PLANTING:R  IRRIG   :N  FERT :D  RESIDUE:R  HARVEST:M         
                  WEATHER :M  TILLAGE :N                                        
                                                                                
*SUMMARY OF SOIL AND GENETIC INPUT PARAMETERS                                   
                                                                                
   SOIL LOWER UPPER   SAT  EXTR  INIT   ROOT   BULK     pH    NO3    NH4    ORG 
  DEPTH LIMIT LIMIT    SW    SW    SW   DIST   DENS                          C  
   cm   cm3/cm3    cm3/cm3    cm3/cm3         g/cm3         ugN/g  ugN/g     %  
------------------------------------------------------------------------------- 
  0-  5 0.160 0.252 0.376 0.092 0.252   1.00   1.69   6.60   0.00   0.00   0.45 
  5- 15 0.160 0.252 0.376 0.092 0.252   1.00   1.69   6.60   0.00   0.00   0.45 
 15- 30 0.160 0.252 0.376 0.092 0.252   1.00   1.69   6.60   0.00   0.00   0.45 
 30- 53 0.120 0.200 0.440 0.080 0.200   0.27   1.40   7.10   0.00   0.00   0.17 
 53- 77 0.120 0.200 0.440 0.080 0.200   0.27   1.40   7.10   0.00   0.00   0.17 
 77-100 0.120 0.200 0.440 0.080 0.200   0.27   1.40   7.10   0.00   0.00   0.17 
                                                                                
TOT-100  13.2  21.6  42.1   8.4  21.6  <--cm   -  kg/ha-->    0.0    0.0  39475 
SOIL ALBEDO    : 0.09      EVAPORATION LIMIT : 6.00         MIN. FACTOR  : 1.00 
RUNOFF CURVE # :76.00      DRAINAGE RATE     : 0.60         FERT. FACTOR : 1.00 
                                                                                
 Maize      CULTIVAR :CI0003-FNC3056            ECOTYPE :IB0001                 
 P1     : 233.00  P2     : 0.5000  P5     : 976.00                              
 G2     : 956.00  G3     :  7.500  PHINT  : 45.600                              


*SIMULATED CROP AND SOIL STATUS AT MAIN DEVELOPMENT STAGES

 RUN NO.    32     P12/31                  

        CROP GROWTH     BIOMASS         LEAF   CROP N     STRESS      STRESS                                           
   DATE  AGE STAGE        kg/ha    LAI   NUM  kg/ha  %   H2O  Nitr Phos1 Phos2  RSTG                                   
 ------  --- ----------   -----  -----  ----  ---  ---  ----  ----  ----  ----  ----                                   
  1 DEC    0 Start Sim        0   0.00   0.0    0  0.0  0.00  0.00  0.00  0.00     7
 31 DEC    0 Sowing           0   0.00   0.0    0  0.0  0.00  0.00  0.00  0.00     8
  1 JAN    1 Germinate        0   0.00   0.0    0  0.0  0.00  0.00  0.00  0.00     9
  5 JAN    5 Emergence       25   0.00   2.2    1  4.4  0.00  0.01  0.00  0.00     1
 16 JAN   16 End Juveni     137   0.28   7.9    3  2.1  0.01  0.10  0.00  0.00     2
 20 JAN   20 Floral Ini     213   0.37   9.9    4  1.6  0.00  0.61  0.00  0.00     3
 18 FEB   49 75% Silkin    1214   0.44  20.6    8  0.7  0.49  0.80  0.00  0.00     4
 26 FEB   57 Beg Gr Fil    1353   0.31  20.6   24  1.8  0.71  0.82  0.00  0.00     5
  4 APR   94 End Gr Fil    1616   0.31  20.6   24  1.5  0.00  0.00  0.00  0.00     6
  7 APR   97 Maturity      1616   0.31  20.6   24  1.5  0.00  0.00  0.00  0.00    10
  7 APR   97 Harvest       1616   0.31  20.6   24  1.5  0.00  0.00  0.00  0.00    10


*MAIN GROWTH AND DEVELOPMENT VARIABLES

@     VARIABLE                                         SIMULATED     MEASURED
      --------                                         ---------     --------
      Anthesis day (dap)                                      49          -99
      Physiological maturity day (dap)                        97          -99
      Yield at harvest maturity (kg [dm]/ha)                 251          -99
      Number at maturity (no/m2)                             101          -99
      Unit wt at maturity (g [dm]/unit)                   0.2482          -99
      Number at maturity (no/unit)                          18.5          -99
      Tops weight at maturity (kg [dm]/ha)                  1616          -99
      By-product produced (stalk) at maturity (kg[dm]/ha    1383          -99
      Leaf area index, maximum                              0.60          -99
      Harvest index at maturity                            0.156          -99
      Grain N at maturity (kg/ha)                              4          -99
      Tops N at maturity (kg/ha)                              24          -99
      Stem N at maturity (kg/ha)                              19          -99
      Grain N at maturity (%)                                1.6          -99
      Tops weight at anthesis (kg [dm]/ha)                  1192          -99
      Tops N at anthesis (kg/ha)                               8          -99
      Leaf number per stem at maturity                     20.58          -99
      Emergence day (dap)                                      5          -99


*ENVIRONMENTAL AND STRESS FACTORS

 |-----Development Phase------|--------------------------------------Environment--------------------------------------|-----------------Stress-----------------|
                              |---------------Average--------------|-----Cumulative-----|--------Count of days--------|          (0=Min, 1=Max Stress)         |
                         Time  Temp  Temp  Temp Solar Photop                Evapo    Pot TMIN TMIN TMAX TMAX TMAX RAIN|----Water----|---Nitrogen--|-Phosphorus-|
                         Span   Max   Min  Mean   Rad  [day]    CO2   Rain  Trans     ET   <    <    >    >    >    >   Photo         Photo         Photo
                         days    邂    邂    邂 MJ/m2     hr    ppm     mm     mm     mm  0邂  2邂 30邂 32邂 34邂  0mm  synth Growth  synth Growth  synth Growth
----------------------------------------------------------------------------------------------------------------------------------------------------------------
 Emergence-End Juvenile    11  34.3  22.7  28.5  20.8   0.00  388.6  106.7   34.3   67.7    0    0   11   11    8    3  0.000  0.011  0.025  0.062  0.000  0.000
 End Juvenil-Floral Init    4  34.9  22.7  28.8  20.7   0.00  388.8    0.0    6.1   24.1    0    0    4    4    3    0  0.000  0.000  0.276  0.547  0.000  0.000
 Floral Init-End Lf Grow   29  34.4  22.6  28.5  19.6   0.00  388.8    3.3   37.8  163.7    0    0   27   24   17    4  0.327  0.463  0.557  0.798  0.000  0.000
 End Lf Grth-Beg Grn Fil    8  34.9  23.6  29.2  20.2   0.00  389.0    0.2    6.1   47.9    0    0    8    7    5    1  0.616  0.745  0.594  0.829  0.000  0.000
 Grain Filling Phase       37  34.2  22.7  28.5  19.5   9.38  389.1  498.4  143.0  212.2    0    0   36   30   24   14  0.008  0.016  0.015  0.022  0.000  0.000


 Planting to Harvest       97  34.3  22.6  28.4  19.8   4.10  388.9  611.7  236.3  562.1    0    0   94   83   58   23  0.152  0.207  0.236  0.345  0.000  0.000
----------------------------------------------------------------------------------------------------------------------------------------------------------------


*Resource Productivity
 Growing season length:  97 days 

 Precipitation during growing season       611.7 mm[rain]
   Dry Matter Productivity                  0.26 kg[DM]/m3[rain]          =    2.6 kg[DM]/ha per mm[rain]
   Yield Productivity                       0.04 kg[grain yield]/m3[rain] =    0.4 kg[yield]/ha per mm[rain]

 Evapotranspiration during growing season  236.3 mm[ET]
   Dry Matter Productivity                  0.68 kg[DM]/m3[ET]            =    6.8 kg[DM]/ha per mm[ET]
   Yield Productivity                       0.11 kg[grain yield]/m3[ET]   =    1.1 kg[yield]/ha per mm[ET]

 Transpiration during growing season        86.4 mm[EP]
   Dry Matter Productivity                  1.87 kg[DM]/m3[EP]            =   18.7 kg[DM]/ha per mm[EP]
   Yield Productivity                       0.29 kg[grain yield]/m3[EP]   =    2.9 kg[yield]/ha per mm[EP]

 N applied during growing season            162. kg[N applied]/ha
   Dry Matter Productivity                  10.0 kg[DM]/kg[N applied]
   Yield Productivity                        1.5 kg[yield]/kg[N applied]

 N uptake during growing season               26 kg[N uptake]/ha
   Dry Matter Productivity                  62.1 kg[DM]/kg[N uptake]
   Yield Productivity                        9.7 kg[yield]/kg[N uptake]

--------------------------------------------------------------------------------------------------------------

                     Maize YIELD :      251 kg/ha    [Dry weight] 

**************************************************************************************************************
