*SIMULATION OVERVIEW FILE

*DSSAT Cropping System Model Ver. 4.6.1.000 -release      OCT 02, 2017; 14:03:24
                                                                                
*RUN   1        : P04/02                    MZCER046 ANBU2009    1              
 MODEL          : MZCER046 - Maize                                              
 EXPERIMENT     : ANBU2009 MZ  Analisis a침os de bajo rendimiento Buga          
 DATA PATH      : C:\DSSAT46\maize\                                             
 TREATMENT  1   : P04/02                    MZCER046                            
                                                                                
                                                                                
 CROP           : Maize            CULTIVAR : DK234            ECOTYPE :IB0001  
 STARTING DATE  : MAR  3 2009                                                   
 PLANTING DATE  : APR  2 2009        PLANTS/m2 :  6.2     ROW SPACING :  80.cm  
 WEATHER        : CUNI   2009                                                   
 SOIL           : CCBUGA2017     TEXTURE : CL    -   Suelo Buga MADR Fase I     
 SOIL INITIAL C : DEPTH: 90cm EXTR. H2O: 83.9mm  NO3:151.4kg/ha  NH4: 62.4kg/ha 
 WATER BALANCE  : RAINFED                                                       
 IRRIGATION     : NOT IRRIGATED                                                 
 NITROGEN BAL.  : SOIL-N & N-UPTAKE SIMULATION; NO N-FIXATION                   
 N-FERTILIZER   :      161 kg/ha IN     5 APPLICATIONS                          
 RESIDUE/MANURE : INITIAL :     0 kg/ha ;       0 kg/ha IN     0 APPLICATIONS   
 ENVIRONM. OPT. : DAYL=    0.00  SRAD=    0.00  TMAX=    0.00  TMIN=    0.00    
                  RAIN=    0.00  CO2 =    0.00  DEW =    0.00  WIND=    0.00    
 SIMULATION OPT : WATER   :Y  NITROGEN:Y  N-FIX:N  PHOSPH :N  PESTS  :N         
                  PHOTO   :C  ET      :R  INFIL:S  HYDROL :R  SOM    :G         
                  CO2 387ppm  NSWIT   :1  EVAP :S  SOIL   :2  STEMP  :D         
 MANAGEMENT OPT : PLANTING:R  IRRIG   :N  FERT :D  RESIDUE:R  HARVEST:M         
                  WEATHER :M  TILLAGE :N                                        
                                                                                
*SUMMARY OF SOIL AND GENETIC INPUT PARAMETERS                                   
                                                                                
   SOIL LOWER UPPER   SAT  EXTR  INIT   ROOT   BULK     pH    NO3    NH4    ORG 
  DEPTH LIMIT LIMIT    SW    SW    SW   DIST   DENS                          C  
   cm   cm3/cm3    cm3/cm3    cm3/cm3         g/cm3         ugN/g  ugN/g     %  
------------------------------------------------------------------------------- 
  0-  5 0.215 0.331 0.341 0.116 0.319   1.00   1.68   6.70  11.90   4.21   0.75 
  5- 15 0.215 0.331 0.341 0.116 0.319   1.00   1.68   6.70  11.90   4.21   0.75 
 15- 25 0.215 0.331 0.341 0.116 0.319   1.00   1.68   6.70  11.90   4.21   0.75 
 25- 35 0.181 0.291 0.364 0.110 0.331   0.50   1.61   7.20  12.15   4.32   0.53 
 35- 45 0.181 0.291 0.364 0.110 0.344   0.50   1.61   7.20  12.40   4.44   0.53 
 45- 67 0.096 0.169 0.404 0.073 0.290   0.27   1.51   7.00  10.67   4.47   0.05 
 67- 90 0.096 0.169 0.404 0.073 0.195   0.27   1.51   7.00   7.63   4.53   0.05 
                                                                                
TOT- 90  13.3  21.7  34.0   8.4  25.6  <--cm   -  kg/ha-->  151.4   62.4  51964 
SOIL ALBEDO    : 0.09      EVAPORATION LIMIT : 6.00         MIN. FACTOR  : 1.00 
RUNOFF CURVE # :76.00      DRAINAGE RATE     : 0.60         FERT. FACTOR : 1.00 
                                                                                
 Maize      CULTIVAR :CI0002-DK234              ECOTYPE :IB0001                 
 P1     : 300.00  P2     : 0.4000  P5     :1075.00                              
 G2     : 890.00  G3     :  7.750  PHINT  : 40.000                              


*SIMULATED CROP AND SOIL STATUS AT MAIN DEVELOPMENT STAGES

 RUN NO.     1     P04/02                  

        CROP GROWTH     BIOMASS         LEAF   CROP N     STRESS      STRESS                                           
   DATE  AGE STAGE        kg/ha    LAI   NUM  kg/ha  %   H2O  Nitr Phos1 Phos2  RSTG                                   
 ------  --- ----------   -----  -----  ----  ---  ---  ----  ----  ----  ----  ----                                   
  3 MAR    0 Start Sim        0   0.00   0.0    0  0.0  0.00  0.00  0.00  0.00     7
  2 APR    0 Sowing           0   0.00   0.0    0  0.0  0.00  0.00  0.00  0.00     8
  3 APR    1 Germinate        0   0.00   0.0    0  0.0  0.00  0.00  0.00  0.00     9
  8 APR    6 Emergence       25   0.00   2.1    1  4.4  0.00  0.01  0.00  0.00     1
 24 APR   22 End Juveni     235   0.45  10.0    7  3.0  0.00  0.00  0.00  0.00     2
  1 MAY   29 Floral Ini     814   1.24  13.2   30  3.6  0.00  0.00  0.00  0.00     3
  9 JUN   68 75% Silkin    8231   4.00  27.3  165  2.0  0.18  0.00  0.00  0.00     4
 19 JUN   78 Beg Gr Fil   10385   4.00  27.3  165  1.6  0.00  0.00  0.00  0.00     5
 10 AUG  130 End Gr Fil   17506   1.37  27.3  224  1.3  0.46  0.00  0.00  0.00     6
 12 AUG  132 Maturity     17506   1.37  27.3  224  1.3  0.98  0.00  0.00  0.00    10
 12 AUG  132 Harvest      17506   1.37  27.3  224  1.3  0.00  0.00  0.00  0.00    10


*MAIN GROWTH AND DEVELOPMENT VARIABLES

@     VARIABLE                                         SIMULATED     MEASURED
      --------                                         ---------     --------
      Anthesis day (dap)                                      68          -99
      Physiological maturity day (dap)                       132          -99
      Yield at harvest maturity (kg [dm]/ha)                8913          -99
      Number at maturity (no/m2)                            2840          -99
      Unit wt at maturity (g [dm]/unit)                   0.3139          -99
      Number at maturity (no/unit)                         458.0          -99
      Tops weight at maturity (kg [dm]/ha)                 17506          -99
      By-product produced (stalk) at maturity (kg[dm]/ha    8674          -99
      Leaf area index, maximum                              4.00          -99
      Harvest index at maturity                            0.509          -99
      Grain N at maturity (kg/ha)                            157          -99
      Tops N at maturity (kg/ha)                             224          -99
      Stem N at maturity (kg/ha)                              66          -99
      Grain N at maturity (%)                                1.8          -99
      Tops weight at anthesis (kg [dm]/ha)                  7978          -99
      Tops N at anthesis (kg/ha)                             163          -99
      Leaf number per stem at maturity                     27.33          -99
      Emergence day (dap)                                      6          -99


*ENVIRONMENTAL AND STRESS FACTORS

 |-----Development Phase------|--------------------------------------Environment--------------------------------------|-----------------Stress-----------------|
                              |---------------Average--------------|-----Cumulative-----|--------Count of days--------|          (0=Min, 1=Max Stress)         |
                         Time  Temp  Temp  Temp Solar Photop                Evapo    Pot TMIN TMIN TMAX TMAX TMAX RAIN|----Water----|---Nitrogen--|-Phosphorus-|
                         Span   Max   Min  Mean   Rad  [day]    CO2   Rain  Trans     ET   <    <    >    >    >    >   Photo         Photo         Photo
                         days    邂    邂    邂 MJ/m2     hr    ppm     mm     mm     mm  0邂  2邂 30邂 32邂 34邂  0mm  synth Growth  synth Growth  synth Growth
----------------------------------------------------------------------------------------------------------------------------------------------------------------
 Emergence-End Juvenile    16  31.2  19.7  25.5  15.9  22.39  386.9   18.3   35.0   71.5    0    0   13    3    0    6  0.000  0.000  0.002  0.005  0.000  0.000
 End Juvenil-Floral Init    7  31.6  19.9  25.7  16.7  24.00  386.9   16.1   18.4   31.5    0    0    4    3    2    4  0.000  0.000  0.000  0.001  0.000  0.000
 Floral Init-End Lf Grow   39  31.5  18.9  25.2  16.7  24.00  387.0  150.5  138.7  157.9    0    0   30   11    1   17  0.123  0.178  0.000  0.000  0.000  0.000
 End Lf Grth-Beg Grn Fil   10  29.7  19.0  24.4  15.4  24.00  387.2   37.2   35.9   36.1    0    0    3    0    0    5  0.000  0.000  0.000  0.000  0.000  0.000
 Grain Filling Phase       52  30.9  18.2  24.6  16.7  24.00  387.4   79.6  124.2  208.3    0    0   30   15    4    9  0.402  0.441  0.000  0.000  0.000  0.000


 Planting to Harvest      132  31.1  18.8  25.0  16.7  23.48  387.1  310.7  365.2  550.1    0    0   86   35    7   42  0.209  0.241  0.000  0.001  0.000  0.000
----------------------------------------------------------------------------------------------------------------------------------------------------------------


*Resource Productivity
 Growing season length: 132 days 

 Precipitation during growing season       310.7 mm[rain]
   Dry Matter Productivity                  5.63 kg[DM]/m3[rain]          =   56.3 kg[DM]/ha per mm[rain]
   Yield Productivity                       2.87 kg[grain yield]/m3[rain] =   28.7 kg[yield]/ha per mm[rain]

 Evapotranspiration during growing season  365.2 mm[ET]
   Dry Matter Productivity                  4.79 kg[DM]/m3[ET]            =   47.9 kg[DM]/ha per mm[ET]
   Yield Productivity                       2.44 kg[grain yield]/m3[ET]   =   24.4 kg[yield]/ha per mm[ET]

 Transpiration during growing season       267.4 mm[EP]
   Dry Matter Productivity                  6.55 kg[DM]/m3[EP]            =   65.5 kg[DM]/ha per mm[EP]
   Yield Productivity                       3.33 kg[grain yield]/m3[EP]   =   33.3 kg[yield]/ha per mm[EP]

 N applied during growing season            161. kg[N applied]/ha
   Dry Matter Productivity                 108.7 kg[DM]/kg[N applied]
   Yield Productivity                       55.4 kg[yield]/kg[N applied]

 N uptake during growing season              244 kg[N uptake]/ha
   Dry Matter Productivity                  71.7 kg[DM]/kg[N uptake]
   Yield Productivity                       36.5 kg[yield]/kg[N uptake]

--------------------------------------------------------------------------------------------------------------

                     Maize YIELD :     8913 kg/ha    [Dry weight] 

**************************************************************************************************************

*DSSAT Cropping System Model Ver. 4.6.1.000 -release      OCT 02, 2017; 14:03:25
                                                                                
*RUN   2        : P04/07                    MZCER046 ANBU2009    2              
 MODEL          : MZCER046 - Maize                                              
 EXPERIMENT     : ANBU2009 MZ  Analisis a침os de bajo rendimiento Buga          
 DATA PATH      : C:\DSSAT46\maize\                                             
 TREATMENT  2   : P04/07                    MZCER046                            
                                                                                
                                                                                
 CROP           : Maize            CULTIVAR : DK234            ECOTYPE :IB0001  
 STARTING DATE  : MAR  8 2009                                                   
 PLANTING DATE  : APR  7 2009        PLANTS/m2 :  6.2     ROW SPACING :  80.cm  
 WEATHER        : CUNI   2009                                                   
 SOIL           : CCBUGA2017     TEXTURE : CL    -   Suelo Buga MADR Fase I     
 SOIL INITIAL C : DEPTH: 90cm EXTR. H2O: 83.9mm  NO3:151.4kg/ha  NH4: 62.4kg/ha 
 WATER BALANCE  : RAINFED                                                       
 IRRIGATION     : NOT IRRIGATED                                                 
 NITROGEN BAL.  : SOIL-N & N-UPTAKE SIMULATION; NO N-FIXATION                   
 N-FERTILIZER   :      161 kg/ha IN     5 APPLICATIONS                          
 RESIDUE/MANURE : INITIAL :     0 kg/ha ;       0 kg/ha IN     0 APPLICATIONS   
 ENVIRONM. OPT. : DAYL=    0.00  SRAD=    0.00  TMAX=    0.00  TMIN=    0.00    
                  RAIN=    0.00  CO2 =    0.00  DEW =    0.00  WIND=    0.00    
 SIMULATION OPT : WATER   :Y  NITROGEN:Y  N-FIX:N  PHOSPH :N  PESTS  :N         
                  PHOTO   :C  ET      :R  INFIL:S  HYDROL :R  SOM    :G         
                  CO2 387ppm  NSWIT   :1  EVAP :S  SOIL   :2  STEMP  :D         
 MANAGEMENT OPT : PLANTING:R  IRRIG   :N  FERT :D  RESIDUE:R  HARVEST:M         
                  WEATHER :M  TILLAGE :N                                        
                                                                                
*SUMMARY OF SOIL AND GENETIC INPUT PARAMETERS                                   
                                                                                
   SOIL LOWER UPPER   SAT  EXTR  INIT   ROOT   BULK     pH    NO3    NH4    ORG 
  DEPTH LIMIT LIMIT    SW    SW    SW   DIST   DENS                          C  
   cm   cm3/cm3    cm3/cm3    cm3/cm3         g/cm3         ugN/g  ugN/g     %  
------------------------------------------------------------------------------- 
  0-  5 0.215 0.331 0.341 0.116 0.319   1.00   1.68   6.70  11.90   4.21   0.75 
  5- 15 0.215 0.331 0.341 0.116 0.319   1.00   1.68   6.70  11.90   4.21   0.75 
 15- 25 0.215 0.331 0.341 0.116 0.319   1.00   1.68   6.70  11.90   4.21   0.75 
 25- 35 0.181 0.291 0.364 0.110 0.331   0.50   1.61   7.20  12.15   4.32   0.53 
 35- 45 0.181 0.291 0.364 0.110 0.344   0.50   1.61   7.20  12.40   4.44   0.53 
 45- 67 0.096 0.169 0.404 0.073 0.290   0.27   1.51   7.00  10.67   4.47   0.05 
 67- 90 0.096 0.169 0.404 0.073 0.195   0.27   1.51   7.00   7.63   4.53   0.05 
                                                                                
TOT- 90  13.3  21.7  34.0   8.4  25.6  <--cm   -  kg/ha-->  151.4   62.4  51964 
SOIL ALBEDO    : 0.09      EVAPORATION LIMIT : 6.00         MIN. FACTOR  : 1.00 
RUNOFF CURVE # :76.00      DRAINAGE RATE     : 0.60         FERT. FACTOR : 1.00 
                                                                                
 Maize      CULTIVAR :CI0002-DK234              ECOTYPE :IB0001                 
 P1     : 300.00  P2     : 0.4000  P5     :1075.00                              
 G2     : 890.00  G3     :  7.750  PHINT  : 40.000                              


*SIMULATED CROP AND SOIL STATUS AT MAIN DEVELOPMENT STAGES

 RUN NO.     2     P04/07                  

        CROP GROWTH     BIOMASS         LEAF   CROP N     STRESS      STRESS                                           
   DATE  AGE STAGE        kg/ha    LAI   NUM  kg/ha  %   H2O  Nitr Phos1 Phos2  RSTG                                   
 ------  --- ----------   -----  -----  ----  ---  ---  ----  ----  ----  ----  ----                                   
  8 MAR    0 Start Sim        0   0.00   0.0    0  0.0  0.00  0.00  0.00  0.00     7
  7 APR    0 Sowing           0   0.00   0.0    0  0.0  0.00  0.00  0.00  0.00     8
  8 APR    1 Germinate        0   0.00   0.0    0  0.0  0.00  0.00  0.00  0.00     9
 13 APR    6 Emergence       25   0.00   2.2    1  4.4  0.00  0.01  0.00  0.00     1
 29 APR   22 End Juveni     302   0.56  10.2   10  3.2  0.01  0.00  0.00  0.00     2
  7 MAY   30 Floral Ini     812   1.23  13.6   29  3.6  0.00  0.00  0.00  0.00     3
 16 JUN   70 75% Silkin    8504   4.30  28.3  173  2.0  0.15  0.00  0.00  0.00     4
 27 JUN   81 Beg Gr Fil   10675   4.21  28.3  173  1.6  0.00  0.00  0.00  0.00     5
 16 AUG  131 End Gr Fil   16230   1.14  28.3  200  1.2  0.57  0.00  0.00  0.00     6
 19 AUG  134 Maturity     16230   1.14  28.3  200  1.2  0.31  0.00  0.00  0.00    10
 19 AUG  134 Harvest      16230   1.14  28.3  200  1.2  0.00  0.00  0.00  0.00    10


*MAIN GROWTH AND DEVELOPMENT VARIABLES

@     VARIABLE                                         SIMULATED     MEASURED
      --------                                         ---------     --------
      Anthesis day (dap)                                      70          -99
      Physiological maturity day (dap)                       134          -99
      Yield at harvest maturity (kg [dm]/ha)                7185          -99
      Number at maturity (no/m2)                            2724          -99
      Unit wt at maturity (g [dm]/unit)                   0.2638          -99
      Number at maturity (no/unit)                         439.3          -99
      Tops weight at maturity (kg [dm]/ha)                 16230          -99
      By-product produced (stalk) at maturity (kg[dm]/ha    9129          -99
      Leaf area index, maximum                              4.31          -99
      Harvest index at maturity                            0.443          -99
      Grain N at maturity (kg/ha)                            128          -99
      Tops N at maturity (kg/ha)                             200          -99
      Stem N at maturity (kg/ha)                              72          -99
      Grain N at maturity (%)                                1.8          -99
      Tops weight at anthesis (kg [dm]/ha)                  8223          -99
      Tops N at anthesis (kg/ha)                             170          -99
      Leaf number per stem at maturity                     28.26          -99
      Emergence day (dap)                                      6          -99


*ENVIRONMENTAL AND STRESS FACTORS

 |-----Development Phase------|--------------------------------------Environment--------------------------------------|-----------------Stress-----------------|
                              |---------------Average--------------|-----Cumulative-----|--------Count of days--------|          (0=Min, 1=Max Stress)         |
                         Time  Temp  Temp  Temp Solar Photop                Evapo    Pot TMIN TMIN TMAX TMAX TMAX RAIN|----Water----|---Nitrogen--|-Phosphorus-|
                         Span   Max   Min  Mean   Rad  [day]    CO2   Rain  Trans     ET   <    <    >    >    >    >   Photo         Photo         Photo
                         days    邂    邂    邂 MJ/m2     hr    ppm     mm     mm     mm  0邂  2邂 30邂 32邂 34邂  0mm  synth Growth  synth Growth  synth Growth
----------------------------------------------------------------------------------------------------------------------------------------------------------------
 Emergence-End Juvenile    16  32.2  19.6  25.9  17.0  23.80  386.9   22.6   26.8   76.9    0    0   13    6    2    4  0.000  0.012  0.002  0.004  0.000  0.000
 End Juvenil-Floral Init    8  29.9  19.5  24.7  15.3  24.00  386.9   36.6   28.2   32.1    0    0    4    1    0    6  0.000  0.000  0.001  0.001  0.000  0.000
 Floral Init-End Lf Grow   40  31.2  18.9  25.1  16.3  24.00  387.1  152.8  141.8  158.0    0    0   27   10    1   18  0.094  0.148  0.000  0.000  0.000  0.000
 End Lf Grth-Beg Grn Fil   11  29.1  18.3  23.7  14.5  24.00  387.3    5.8   36.8   36.9    0    0    4    0    0    2  0.000  0.000  0.000  0.000  0.000  0.000
 Grain Filling Phase       50  31.6  18.3  25.0  17.2  24.00  387.4   84.4  109.4  208.8    0    0   34   21    5    8  0.504  0.547  0.000  0.000  0.000  0.000


 Planting to Harvest      134  31.2  18.8  25.0  16.5  23.76  387.2  326.9  365.7  552.0    0    0   88   38    8   45  0.229  0.264  0.000  0.001  0.000  0.000
----------------------------------------------------------------------------------------------------------------------------------------------------------------


*Resource Productivity
 Growing season length: 134 days 

 Precipitation during growing season       326.9 mm[rain]
   Dry Matter Productivity                  4.96 kg[DM]/m3[rain]          =   49.6 kg[DM]/ha per mm[rain]
   Yield Productivity                       2.20 kg[grain yield]/m3[rain] =   22.0 kg[yield]/ha per mm[rain]

 Evapotranspiration during growing season  365.7 mm[ET]
   Dry Matter Productivity                  4.44 kg[DM]/m3[ET]            =   44.4 kg[DM]/ha per mm[ET]
   Yield Productivity                       1.96 kg[grain yield]/m3[ET]   =   19.6 kg[yield]/ha per mm[ET]

 Transpiration during growing season       261.1 mm[EP]
   Dry Matter Productivity                  6.22 kg[DM]/m3[EP]            =   62.2 kg[DM]/ha per mm[EP]
   Yield Productivity                       2.75 kg[grain yield]/m3[EP]   =   27.5 kg[yield]/ha per mm[EP]

 N applied during growing season            161. kg[N applied]/ha
   Dry Matter Productivity                 100.8 kg[DM]/kg[N applied]
   Yield Productivity                       44.6 kg[yield]/kg[N applied]

 N uptake during growing season              221 kg[N uptake]/ha
   Dry Matter Productivity                  73.4 kg[DM]/kg[N uptake]
   Yield Productivity                       32.5 kg[yield]/kg[N uptake]

--------------------------------------------------------------------------------------------------------------

                     Maize YIELD :     7185 kg/ha    [Dry weight] 

**************************************************************************************************************

*DSSAT Cropping System Model Ver. 4.6.1.000 -release      OCT 02, 2017; 14:03:25
                                                                                
*RUN   3        : P04/12                    MZCER046 ANBU2009    3              
 MODEL          : MZCER046 - Maize                                              
 EXPERIMENT     : ANBU2009 MZ  Analisis a침os de bajo rendimiento Buga          
 DATA PATH      : C:\DSSAT46\maize\                                             
 TREATMENT  3   : P04/12                    MZCER046                            
                                                                                
                                                                                
 CROP           : Maize            CULTIVAR : DK234            ECOTYPE :IB0001  
 STARTING DATE  : MAR 13 2009                                                   
 PLANTING DATE  : APR 12 2009        PLANTS/m2 :  6.2     ROW SPACING :  80.cm  
 WEATHER        : CUNI   2009                                                   
 SOIL           : CCBUGA2017     TEXTURE : CL    -   Suelo Buga MADR Fase I     
 SOIL INITIAL C : DEPTH: 90cm EXTR. H2O: 83.9mm  NO3:151.4kg/ha  NH4: 62.4kg/ha 
 WATER BALANCE  : RAINFED                                                       
 IRRIGATION     : NOT IRRIGATED                                                 
 NITROGEN BAL.  : SOIL-N & N-UPTAKE SIMULATION; NO N-FIXATION                   
 N-FERTILIZER   :      161 kg/ha IN     5 APPLICATIONS                          
 RESIDUE/MANURE : INITIAL :     0 kg/ha ;       0 kg/ha IN     0 APPLICATIONS   
 ENVIRONM. OPT. : DAYL=    0.00  SRAD=    0.00  TMAX=    0.00  TMIN=    0.00    
                  RAIN=    0.00  CO2 =    0.00  DEW =    0.00  WIND=    0.00    
 SIMULATION OPT : WATER   :Y  NITROGEN:Y  N-FIX:N  PHOSPH :N  PESTS  :N         
                  PHOTO   :C  ET      :R  INFIL:S  HYDROL :R  SOM    :G         
                  CO2 387ppm  NSWIT   :1  EVAP :S  SOIL   :2  STEMP  :D         
 MANAGEMENT OPT : PLANTING:R  IRRIG   :N  FERT :D  RESIDUE:R  HARVEST:M         
                  WEATHER :M  TILLAGE :N                                        
                                                                                
*SUMMARY OF SOIL AND GENETIC INPUT PARAMETERS                                   
                                                                                
   SOIL LOWER UPPER   SAT  EXTR  INIT   ROOT   BULK     pH    NO3    NH4    ORG 
  DEPTH LIMIT LIMIT    SW    SW    SW   DIST   DENS                          C  
   cm   cm3/cm3    cm3/cm3    cm3/cm3         g/cm3         ugN/g  ugN/g     %  
------------------------------------------------------------------------------- 
  0-  5 0.215 0.331 0.341 0.116 0.319   1.00   1.68   6.70  11.90   4.21   0.75 
  5- 15 0.215 0.331 0.341 0.116 0.319   1.00   1.68   6.70  11.90   4.21   0.75 
 15- 25 0.215 0.331 0.341 0.116 0.319   1.00   1.68   6.70  11.90   4.21   0.75 
 25- 35 0.181 0.291 0.364 0.110 0.331   0.50   1.61   7.20  12.15   4.32   0.53 
 35- 45 0.181 0.291 0.364 0.110 0.344   0.50   1.61   7.20  12.40   4.44   0.53 
 45- 67 0.096 0.169 0.404 0.073 0.290   0.27   1.51   7.00  10.67   4.47   0.05 
 67- 90 0.096 0.169 0.404 0.073 0.195   0.27   1.51   7.00   7.63   4.53   0.05 
                                                                                
TOT- 90  13.3  21.7  34.0   8.4  25.6  <--cm   -  kg/ha-->  151.4   62.4  51964 
SOIL ALBEDO    : 0.09      EVAPORATION LIMIT : 6.00         MIN. FACTOR  : 1.00 
RUNOFF CURVE # :76.00      DRAINAGE RATE     : 0.60         FERT. FACTOR : 1.00 
                                                                                
 Maize      CULTIVAR :CI0002-DK234              ECOTYPE :IB0001                 
 P1     : 300.00  P2     : 0.4000  P5     :1075.00                              
 G2     : 890.00  G3     :  7.750  PHINT  : 40.000                              


*SIMULATED CROP AND SOIL STATUS AT MAIN DEVELOPMENT STAGES

 RUN NO.     3     P04/12                  

        CROP GROWTH     BIOMASS         LEAF   CROP N     STRESS      STRESS                                           
   DATE  AGE STAGE        kg/ha    LAI   NUM  kg/ha  %   H2O  Nitr Phos1 Phos2  RSTG                                   
 ------  --- ----------   -----  -----  ----  ---  ---  ----  ----  ----  ----  ----                                   
 13 MAR    0 Start Sim        0   0.00   0.0    0  0.0  0.00  0.00  0.00  0.00     7
 12 APR    0 Sowing           0   0.00   0.0    0  0.0  0.00  0.00  0.00  0.00     8
 13 APR    1 Germinate        0   0.00   0.0    0  0.0  0.00  0.00  0.00  0.00     9
 18 APR    6 Emergence       25   0.00   2.2    1  4.4  0.00  0.01  0.00  0.00     1
  4 MAY   22 End Juveni     201   0.39  10.1    7  3.6  0.00  0.00  0.00  0.00     2
 12 MAY   30 Floral Ini     868   1.30  13.5   31  3.6  0.00  0.00  0.00  0.00     3
 21 JUN   70 75% Silkin    8981   4.52  28.0  180  2.0  0.13  0.00  0.00  0.00     4
  2 JUL   81 Beg Gr Fil   11154   4.35  28.0  180  1.6  0.00  0.00  0.00  0.00     5
 21 AUG  131 End Gr Fil   16088   1.00  28.0  193  1.2  0.61  0.00  0.00  0.00     6
 24 AUG  134 Maturity     16088   1.00  28.0  193  1.2  0.16  0.00  0.00  0.00    10
 24 AUG  134 Harvest      16088   1.00  28.0  193  1.2  0.00  0.00  0.00  0.00    10


*MAIN GROWTH AND DEVELOPMENT VARIABLES

@     VARIABLE                                         SIMULATED     MEASURED
      --------                                         ---------     --------
      Anthesis day (dap)                                      70          -99
      Physiological maturity day (dap)                       134          -99
      Yield at harvest maturity (kg [dm]/ha)                6495          -99
      Number at maturity (no/m2)                            2744          -99
      Unit wt at maturity (g [dm]/unit)                   0.2366          -99
      Number at maturity (no/unit)                         442.6          -99
      Tops weight at maturity (kg [dm]/ha)                 16088          -99
      By-product produced (stalk) at maturity (kg[dm]/ha    9678          -99
      Leaf area index, maximum                              4.54          -99
      Harvest index at maturity                            0.404          -99
      Grain N at maturity (kg/ha)                            116          -99
      Tops N at maturity (kg/ha)                             193          -99
      Stem N at maturity (kg/ha)                              77          -99
      Grain N at maturity (%)                                1.8          -99
      Tops weight at anthesis (kg [dm]/ha)                  8675          -99
      Tops N at anthesis (kg/ha)                             177          -99
      Leaf number per stem at maturity                     28.02          -99
      Emergence day (dap)                                      6          -99


*ENVIRONMENTAL AND STRESS FACTORS

 |-----Development Phase------|--------------------------------------Environment--------------------------------------|-----------------Stress-----------------|
                              |---------------Average--------------|-----Cumulative-----|--------Count of days--------|          (0=Min, 1=Max Stress)         |
                         Time  Temp  Temp  Temp Solar Photop                Evapo    Pot TMIN TMIN TMAX TMAX TMAX RAIN|----Water----|---Nitrogen--|-Phosphorus-|
                         Span   Max   Min  Mean   Rad  [day]    CO2   Rain  Trans     ET   <    <    >    >    >    >   Photo         Photo         Photo
                         days    邂    邂    邂 MJ/m2     hr    ppm     mm     mm     mm  0邂  2邂 30邂 32邂 34邂  0mm  synth Growth  synth Growth  synth Growth
----------------------------------------------------------------------------------------------------------------------------------------------------------------
 Emergence-End Juvenile    16  31.4  19.9  25.6  15.2  24.00  386.9   50.2   29.7   68.3    0    0   10    5    2    7  0.000  0.000  0.002  0.004  0.000  0.000
 End Juvenil-Floral Init    8  30.9  18.6  24.7  17.6  24.00  386.9    3.6   28.3   36.9    0    0    6    0    0    3  0.000  0.000  0.000  0.001  0.000  0.000
 Floral Init-End Lf Grow   40  31.1  18.9  25.0  16.0  24.00  387.1  150.0  141.2  154.3    0    0   25   10    1   16  0.059  0.128  0.000  0.000  0.000  0.000
 End Lf Grth-Beg Grn Fil   11  28.5  18.0  23.2  14.5  24.00  387.3   60.1   36.4   36.6    0    0    2    0    0    4  0.000  0.000  0.000  0.000  0.000  0.000
 Grain Filling Phase       50  31.9  18.5  25.2  17.4  24.00  387.4   42.4  102.6  212.5    0    0   38   21    5    9  0.565  0.611  0.000  0.000  0.000  0.000


 Planting to Harvest      134  31.2  18.8  25.0  16.6  23.95  387.2  333.2  364.1  556.3    0    0   89   38    8   44  0.230  0.270  0.000  0.001  0.000  0.000
----------------------------------------------------------------------------------------------------------------------------------------------------------------


*Resource Productivity
 Growing season length: 134 days 

 Precipitation during growing season       333.2 mm[rain]
   Dry Matter Productivity                  4.83 kg[DM]/m3[rain]          =   48.3 kg[DM]/ha per mm[rain]
   Yield Productivity                       1.95 kg[grain yield]/m3[rain] =   19.5 kg[yield]/ha per mm[rain]

 Evapotranspiration during growing season  364.1 mm[ET]
   Dry Matter Productivity                  4.42 kg[DM]/m3[ET]            =   44.2 kg[DM]/ha per mm[ET]
   Yield Productivity                       1.78 kg[grain yield]/m3[ET]   =   17.8 kg[yield]/ha per mm[ET]

 Transpiration during growing season       258.8 mm[EP]
   Dry Matter Productivity                  6.22 kg[DM]/m3[EP]            =   62.2 kg[DM]/ha per mm[EP]
   Yield Productivity                       2.51 kg[grain yield]/m3[EP]   =   25.1 kg[yield]/ha per mm[EP]

 N applied during growing season            161. kg[N applied]/ha
   Dry Matter Productivity                  99.9 kg[DM]/kg[N applied]
   Yield Productivity                       40.3 kg[yield]/kg[N applied]

 N uptake during growing season              213 kg[N uptake]/ha
   Dry Matter Productivity                  75.5 kg[DM]/kg[N uptake]
   Yield Productivity                       30.5 kg[yield]/kg[N uptake]

--------------------------------------------------------------------------------------------------------------

                     Maize YIELD :     6495 kg/ha    [Dry weight] 

**************************************************************************************************************

*DSSAT Cropping System Model Ver. 4.6.1.000 -release      OCT 02, 2017; 14:03:25
                                                                                
*RUN   4        : P04/17                    MZCER046 ANBU2009    4              
 MODEL          : MZCER046 - Maize                                              
 EXPERIMENT     : ANBU2009 MZ  Analisis a침os de bajo rendimiento Buga          
 DATA PATH      : C:\DSSAT46\maize\                                             
 TREATMENT  4   : P04/17                    MZCER046                            
                                                                                
                                                                                
 CROP           : Maize            CULTIVAR : DK234            ECOTYPE :IB0001  
 STARTING DATE  : MAR 18 2009                                                   
 PLANTING DATE  : APR 17 2009        PLANTS/m2 :  6.2     ROW SPACING :  80.cm  
 WEATHER        : CUNI   2009                                                   
 SOIL           : CCBUGA2017     TEXTURE : CL    -   Suelo Buga MADR Fase I     
 SOIL INITIAL C : DEPTH: 90cm EXTR. H2O: 83.9mm  NO3:151.4kg/ha  NH4: 62.4kg/ha 
 WATER BALANCE  : RAINFED                                                       
 IRRIGATION     : NOT IRRIGATED                                                 
 NITROGEN BAL.  : SOIL-N & N-UPTAKE SIMULATION; NO N-FIXATION                   
 N-FERTILIZER   :      161 kg/ha IN     5 APPLICATIONS                          
 RESIDUE/MANURE : INITIAL :     0 kg/ha ;       0 kg/ha IN     0 APPLICATIONS   
 ENVIRONM. OPT. : DAYL=    0.00  SRAD=    0.00  TMAX=    0.00  TMIN=    0.00    
                  RAIN=    0.00  CO2 =    0.00  DEW =    0.00  WIND=    0.00    
 SIMULATION OPT : WATER   :Y  NITROGEN:Y  N-FIX:N  PHOSPH :N  PESTS  :N         
                  PHOTO   :C  ET      :R  INFIL:S  HYDROL :R  SOM    :G         
                  CO2 387ppm  NSWIT   :1  EVAP :S  SOIL   :2  STEMP  :D         
 MANAGEMENT OPT : PLANTING:R  IRRIG   :N  FERT :D  RESIDUE:R  HARVEST:M         
                  WEATHER :M  TILLAGE :N                                        
                                                                                
*SUMMARY OF SOIL AND GENETIC INPUT PARAMETERS                                   
                                                                                
   SOIL LOWER UPPER   SAT  EXTR  INIT   ROOT   BULK     pH    NO3    NH4    ORG 
  DEPTH LIMIT LIMIT    SW    SW    SW   DIST   DENS                          C  
   cm   cm3/cm3    cm3/cm3    cm3/cm3         g/cm3         ugN/g  ugN/g     %  
------------------------------------------------------------------------------- 
  0-  5 0.215 0.331 0.341 0.116 0.319   1.00   1.68   6.70  11.90   4.21   0.75 
  5- 15 0.215 0.331 0.341 0.116 0.319   1.00   1.68   6.70  11.90   4.21   0.75 
 15- 25 0.215 0.331 0.341 0.116 0.319   1.00   1.68   6.70  11.90   4.21   0.75 
 25- 35 0.181 0.291 0.364 0.110 0.331   0.50   1.61   7.20  12.15   4.32   0.53 
 35- 45 0.181 0.291 0.364 0.110 0.344   0.50   1.61   7.20  12.40   4.44   0.53 
 45- 67 0.096 0.169 0.404 0.073 0.290   0.27   1.51   7.00  10.67   4.47   0.05 
 67- 90 0.096 0.169 0.404 0.073 0.195   0.27   1.51   7.00   7.63   4.53   0.05 
                                                                                
TOT- 90  13.3  21.7  34.0   8.4  25.6  <--cm   -  kg/ha-->  151.4   62.4  51964 
SOIL ALBEDO    : 0.09      EVAPORATION LIMIT : 6.00         MIN. FACTOR  : 1.00 
RUNOFF CURVE # :76.00      DRAINAGE RATE     : 0.60         FERT. FACTOR : 1.00 
                                                                                
 Maize      CULTIVAR :CI0002-DK234              ECOTYPE :IB0001                 
 P1     : 300.00  P2     : 0.4000  P5     :1075.00                              
 G2     : 890.00  G3     :  7.750  PHINT  : 40.000                              


*SIMULATED CROP AND SOIL STATUS AT MAIN DEVELOPMENT STAGES

 RUN NO.     4     P04/17                  

        CROP GROWTH     BIOMASS         LEAF   CROP N     STRESS      STRESS                                           
   DATE  AGE STAGE        kg/ha    LAI   NUM  kg/ha  %   H2O  Nitr Phos1 Phos2  RSTG                                   
 ------  --- ----------   -----  -----  ----  ---  ---  ----  ----  ----  ----  ----                                   
 18 MAR    0 Start Sim        0   0.00   0.0    0  0.0  0.00  0.00  0.00  0.00     7
 17 APR    0 Sowing           0   0.00   0.0    0  0.0  0.00  0.00  0.00  0.00     8
 18 APR    1 Germinate        0   0.00   0.0    0  0.0  0.00  0.00  0.00  0.00     9
 23 APR    6 Emergence       25   0.00   2.1    1  4.4  0.00  0.01  0.00  0.00     1
  9 MAY   22 End Juveni     249   0.47  10.0    8  3.3  0.00  0.00  0.00  0.00     2
 17 MAY   30 Floral Ini     978   1.43  13.4   35  3.6  0.00  0.00  0.00  0.00     3
 26 JUN   70 75% Silkin    9244   4.67  27.9  188  2.0  0.11  0.00  0.00  0.00     4
  7 JUL   81 Beg Gr Fil   11614   4.44  27.9  188  1.6  0.00  0.00  0.00  0.00     5
 25 AUG  130 End Gr Fil   16741   1.10  27.9  198  1.2  0.60  0.00  0.00  0.00     6
 28 AUG  133 Maturity     16741   1.10  27.9  198  1.2  0.46  0.00  0.00  0.00    10
 28 AUG  133 Harvest      16741   1.10  27.9  198  1.2  0.00  0.00  0.00  0.00    10


*MAIN GROWTH AND DEVELOPMENT VARIABLES

@     VARIABLE                                         SIMULATED     MEASURED
      --------                                         ---------     --------
      Anthesis day (dap)                                      70          -99
      Physiological maturity day (dap)                       133          -99
      Yield at harvest maturity (kg [dm]/ha)                6934          -99
      Number at maturity (no/m2)                            2885          -99
      Unit wt at maturity (g [dm]/unit)                   0.2403          -99
      Number at maturity (no/unit)                         465.4          -99
      Tops weight at maturity (kg [dm]/ha)                 16741          -99
      By-product produced (stalk) at maturity (kg[dm]/ha    9895          -99
      Leaf area index, maximum                              4.69          -99
      Harvest index at maturity                            0.414          -99
      Grain N at maturity (kg/ha)                            125          -99
      Tops N at maturity (kg/ha)                             198          -99
      Stem N at maturity (kg/ha)                              73          -99
      Grain N at maturity (%)                                1.8          -99
      Tops weight at anthesis (kg [dm]/ha)                  8968          -99
      Tops N at anthesis (kg/ha)                             186          -99
      Leaf number per stem at maturity                     27.86          -99
      Emergence day (dap)                                      6          -99


*ENVIRONMENTAL AND STRESS FACTORS

 |-----Development Phase------|--------------------------------------Environment--------------------------------------|-----------------Stress-----------------|
                              |---------------Average--------------|-----Cumulative-----|--------Count of days--------|          (0=Min, 1=Max Stress)         |
                         Time  Temp  Temp  Temp Solar Photop                Evapo    Pot TMIN TMIN TMAX TMAX TMAX RAIN|----Water----|---Nitrogen--|-Phosphorus-|
                         Span   Max   Min  Mean   Rad  [day]    CO2   Rain  Trans     ET   <    <    >    >    >    >   Photo         Photo         Photo
                         days    邂    邂    邂 MJ/m2     hr    ppm     mm     mm     mm  0邂  2邂 30邂 32邂 34邂  0mm  synth Growth  synth Growth  synth Growth
----------------------------------------------------------------------------------------------------------------------------------------------------------------
 Emergence-End Juvenile    16  31.1  19.6  25.3  16.7  24.00  386.9   51.0   43.2   74.7    0    0   10    4    2    8  0.000  0.000  0.003  0.007  0.000  0.000
 End Juvenil-Floral Init    8  31.5  17.9  24.7  17.5  24.00  387.0    5.3   21.9   36.5    0    0    6    1    0    4  0.000  0.000  0.000  0.001  0.000  0.000
 Floral Init-End Lf Grow   40  30.6  18.9  24.8  15.4  24.00  387.1  153.3  136.1  147.5    0    0   22    9    1   16  0.056  0.108  0.000  0.000  0.000  0.000
 End Lf Grth-Beg Grn Fil   11  28.9  18.2  23.5  15.3  24.00  387.3   56.8   38.4   38.6    0    0    1    0    0    4  0.000  0.000  0.000  0.000  0.000  0.000
 Grain Filling Phase       49  32.1  18.5  25.3  17.7  24.00  387.5   58.6  106.4  212.8    0    0   41   21    5   10  0.547  0.603  0.000  0.000  0.000  0.000


 Planting to Harvest      133  31.3  18.8  25.0  16.5  24.00  387.2  325.0  361.0  549.6    0    0   88   40    9   42  0.222  0.260  0.000  0.001  0.000  0.000
----------------------------------------------------------------------------------------------------------------------------------------------------------------


*Resource Productivity
 Growing season length: 133 days 

 Precipitation during growing season       325.0 mm[rain]
   Dry Matter Productivity                  5.15 kg[DM]/m3[rain]          =   51.5 kg[DM]/ha per mm[rain]
   Yield Productivity                       2.13 kg[grain yield]/m3[rain] =   21.3 kg[yield]/ha per mm[rain]

 Evapotranspiration during growing season  361.0 mm[ET]
   Dry Matter Productivity                  4.64 kg[DM]/m3[ET]            =   46.4 kg[DM]/ha per mm[ET]
   Yield Productivity                       1.92 kg[grain yield]/m3[ET]   =   19.2 kg[yield]/ha per mm[ET]

 Transpiration during growing season       257.5 mm[EP]
   Dry Matter Productivity                  6.50 kg[DM]/m3[EP]            =   65.0 kg[DM]/ha per mm[EP]
   Yield Productivity                       2.69 kg[grain yield]/m3[EP]   =   26.9 kg[yield]/ha per mm[EP]

 N applied during growing season            161. kg[N applied]/ha
   Dry Matter Productivity                 104.0 kg[DM]/kg[N applied]
   Yield Productivity                       43.1 kg[yield]/kg[N applied]

 N uptake during growing season              215 kg[N uptake]/ha
   Dry Matter Productivity                  77.9 kg[DM]/kg[N uptake]
   Yield Productivity                       32.3 kg[yield]/kg[N uptake]

--------------------------------------------------------------------------------------------------------------

                     Maize YIELD :     6934 kg/ha    [Dry weight] 

**************************************************************************************************************

*DSSAT Cropping System Model Ver. 4.6.1.000 -release      OCT 02, 2017; 14:03:25
                                                                                
*RUN   5        : P04/22                    MZCER046 ANBU2009    5              
 MODEL          : MZCER046 - Maize                                              
 EXPERIMENT     : ANBU2009 MZ  Analisis a침os de bajo rendimiento Buga          
 DATA PATH      : C:\DSSAT46\maize\                                             
 TREATMENT  5   : P04/22                    MZCER046                            
                                                                                
                                                                                
 CROP           : Maize            CULTIVAR : DK234            ECOTYPE :IB0001  
 STARTING DATE  : MAR 23 2009                                                   
 PLANTING DATE  : APR 22 2009        PLANTS/m2 :  6.2     ROW SPACING :  80.cm  
 WEATHER        : CUNI   2009                                                   
 SOIL           : CCBUGA2017     TEXTURE : CL    -   Suelo Buga MADR Fase I     
 SOIL INITIAL C : DEPTH: 90cm EXTR. H2O: 83.9mm  NO3:151.4kg/ha  NH4: 62.4kg/ha 
 WATER BALANCE  : RAINFED                                                       
 IRRIGATION     : NOT IRRIGATED                                                 
 NITROGEN BAL.  : SOIL-N & N-UPTAKE SIMULATION; NO N-FIXATION                   
 N-FERTILIZER   :      161 kg/ha IN     5 APPLICATIONS                          
 RESIDUE/MANURE : INITIAL :     0 kg/ha ;       0 kg/ha IN     0 APPLICATIONS   
 ENVIRONM. OPT. : DAYL=    0.00  SRAD=    0.00  TMAX=    0.00  TMIN=    0.00    
                  RAIN=    0.00  CO2 =    0.00  DEW =    0.00  WIND=    0.00    
 SIMULATION OPT : WATER   :Y  NITROGEN:Y  N-FIX:N  PHOSPH :N  PESTS  :N         
                  PHOTO   :C  ET      :R  INFIL:S  HYDROL :R  SOM    :G         
                  CO2 387ppm  NSWIT   :1  EVAP :S  SOIL   :2  STEMP  :D         
 MANAGEMENT OPT : PLANTING:R  IRRIG   :N  FERT :D  RESIDUE:R  HARVEST:M         
                  WEATHER :M  TILLAGE :N                                        
                                                                                
*SUMMARY OF SOIL AND GENETIC INPUT PARAMETERS                                   
                                                                                
   SOIL LOWER UPPER   SAT  EXTR  INIT   ROOT   BULK     pH    NO3    NH4    ORG 
  DEPTH LIMIT LIMIT    SW    SW    SW   DIST   DENS                          C  
   cm   cm3/cm3    cm3/cm3    cm3/cm3         g/cm3         ugN/g  ugN/g     %  
------------------------------------------------------------------------------- 
  0-  5 0.215 0.331 0.341 0.116 0.319   1.00   1.68   6.70  11.90   4.21   0.75 
  5- 15 0.215 0.331 0.341 0.116 0.319   1.00   1.68   6.70  11.90   4.21   0.75 
 15- 25 0.215 0.331 0.341 0.116 0.319   1.00   1.68   6.70  11.90   4.21   0.75 
 25- 35 0.181 0.291 0.364 0.110 0.331   0.50   1.61   7.20  12.15   4.32   0.53 
 35- 45 0.181 0.291 0.364 0.110 0.344   0.50   1.61   7.20  12.40   4.44   0.53 
 45- 67 0.096 0.169 0.404 0.073 0.290   0.27   1.51   7.00  10.67   4.47   0.05 
 67- 90 0.096 0.169 0.404 0.073 0.195   0.27   1.51   7.00   7.63   4.53   0.05 
                                                                                
TOT- 90  13.3  21.7  34.0   8.4  25.6  <--cm   -  kg/ha-->  151.4   62.4  51964 
SOIL ALBEDO    : 0.09      EVAPORATION LIMIT : 6.00         MIN. FACTOR  : 1.00 
RUNOFF CURVE # :76.00      DRAINAGE RATE     : 0.60         FERT. FACTOR : 1.00 
                                                                                
 Maize      CULTIVAR :CI0002-DK234              ECOTYPE :IB0001                 
 P1     : 300.00  P2     : 0.4000  P5     :1075.00                              
 G2     : 890.00  G3     :  7.750  PHINT  : 40.000                              


*SIMULATED CROP AND SOIL STATUS AT MAIN DEVELOPMENT STAGES

 RUN NO.     5     P04/22                  

        CROP GROWTH     BIOMASS         LEAF   CROP N     STRESS      STRESS                                           
   DATE  AGE STAGE        kg/ha    LAI   NUM  kg/ha  %   H2O  Nitr Phos1 Phos2  RSTG                                   
 ------  --- ----------   -----  -----  ----  ---  ---  ----  ----  ----  ----  ----                                   
 23 MAR    0 Start Sim        0   0.00   0.0    0  0.0  0.00  0.00  0.00  0.00     7
 22 APR    0 Sowing           0   0.00   0.0    0  0.0  0.00  0.00  0.00  0.00     8
 23 APR    1 Germinate        0   0.00   0.0    0  0.0  0.00  0.00  0.00  0.00     9
 27 APR    5 Emergence       25   0.00   2.3    1  4.4  0.00  0.01  0.00  0.00     1
 14 MAY   22 End Juveni     317   0.58  10.3   11  3.4  0.00  0.00  0.00  0.00     2
 22 MAY   30 Floral Ini     999   1.46  13.8   36  3.6  0.00  0.00  0.00  0.00     3
  2 JUL   71 75% Silkin    9902   4.96  28.3  202  2.0  0.04  0.00  0.00  0.00     4
 13 JUL   82 Beg Gr Fil   12421   4.63  28.3  202  1.6  0.00  0.00  0.00  0.00     5
 30 AUG  130 End Gr Fil   17255   1.09  28.3  201  1.2  0.66  0.00  0.00  0.00     6
  2 SEP  133 Maturity     17255   1.09  28.3  201  1.2  0.61  0.00  0.00  0.00    10
  2 SEP  133 Harvest      17255   1.09  28.3  201  1.2  0.00  0.00  0.00  0.00    10


*MAIN GROWTH AND DEVELOPMENT VARIABLES

@     VARIABLE                                         SIMULATED     MEASURED
      --------                                         ---------     --------
      Anthesis day (dap)                                      71          -99
      Physiological maturity day (dap)                       133          -99
      Yield at harvest maturity (kg [dm]/ha)                6784          -99
      Number at maturity (no/m2)                            3033          -99
      Unit wt at maturity (g [dm]/unit)                   0.2237          -99
      Number at maturity (no/unit)                         489.2          -99
      Tops weight at maturity (kg [dm]/ha)                 17255          -99
      By-product produced (stalk) at maturity (kg[dm]/ha   10567          -99
      Leaf area index, maximum                              5.00          -99
      Harvest index at maturity                            0.393          -99
      Grain N at maturity (kg/ha)                            123          -99
      Tops N at maturity (kg/ha)                             201          -99
      Stem N at maturity (kg/ha)                              79          -99
      Grain N at maturity (%)                                1.8          -99
      Tops weight at anthesis (kg [dm]/ha)                  9641          -99
      Tops N at anthesis (kg/ha)                             201          -99
      Leaf number per stem at maturity                     28.33          -99
      Emergence day (dap)                                      5          -99


*ENVIRONMENTAL AND STRESS FACTORS

 |-----Development Phase------|--------------------------------------Environment--------------------------------------|-----------------Stress-----------------|
                              |---------------Average--------------|-----Cumulative-----|--------Count of days--------|          (0=Min, 1=Max Stress)         |
                         Time  Temp  Temp  Temp Solar Photop                Evapo    Pot TMIN TMIN TMAX TMAX TMAX RAIN|----Water----|---Nitrogen--|-Phosphorus-|
                         Span   Max   Min  Mean   Rad  [day]    CO2   Rain  Trans     ET   <    <    >    >    >    >   Photo         Photo         Photo
                         days    邂    邂    邂 MJ/m2     hr    ppm     mm     mm     mm  0邂  2邂 30邂 32邂 34邂  0mm  synth Growth  synth Growth  synth Growth
----------------------------------------------------------------------------------------------------------------------------------------------------------------
 Emergence-End Juvenile    17  30.9  19.0  25.0  16.6  24.00  386.9   46.9   43.5   78.3    0    0   11    3    1   10  0.000  0.002  0.002  0.006  0.000  0.000
 End Juvenil-Floral Init    8  31.9  18.6  25.3  15.4  24.00  387.1    0.5   19.6   32.1    0    0    7    2    0    1  0.000  0.000  0.000  0.000  0.000  0.000
 Floral Init-End Lf Grow   41  30.2  18.8  24.5  15.6  24.00  387.2  207.6  147.9  152.5    0    0   18    7    1   18  0.005  0.037  0.000  0.000  0.000  0.000
 End Lf Grth-Beg Grn Fil   11  29.7  18.3  24.0  16.0  24.00  387.3    2.5   40.7   40.9    0    0    3    1    0    2  0.000  0.000  0.000  0.000  0.000  0.000
 Grain Filling Phase       48  32.5  18.6  25.5  17.8  23.98  387.5   61.6   99.4  211.0    0    0   43   24    6   11  0.583  0.639  0.000  0.000  0.000  0.000


 Planting to Harvest      133  31.3  18.7  25.0  16.7  23.92  387.3  333.4  362.2  553.5    0    0   89   41   10   45  0.225  0.256  0.000  0.001  0.000  0.000
----------------------------------------------------------------------------------------------------------------------------------------------------------------


*Resource Productivity
 Growing season length: 133 days 

 Precipitation during growing season       333.4 mm[rain]
   Dry Matter Productivity                  5.18 kg[DM]/m3[rain]          =   51.8 kg[DM]/ha per mm[rain]
   Yield Productivity                       2.03 kg[grain yield]/m3[rain] =   20.3 kg[yield]/ha per mm[rain]

 Evapotranspiration during growing season  362.2 mm[ET]
   Dry Matter Productivity                  4.76 kg[DM]/m3[ET]            =   47.6 kg[DM]/ha per mm[ET]
   Yield Productivity                       1.87 kg[grain yield]/m3[ET]   =   18.7 kg[yield]/ha per mm[ET]

 Transpiration during growing season       261.9 mm[EP]
   Dry Matter Productivity                  6.59 kg[DM]/m3[EP]            =   65.9 kg[DM]/ha per mm[EP]
   Yield Productivity                       2.59 kg[grain yield]/m3[EP]   =   25.9 kg[yield]/ha per mm[EP]

 N applied during growing season            161. kg[N applied]/ha
   Dry Matter Productivity                 107.2 kg[DM]/kg[N applied]
   Yield Productivity                       42.1 kg[yield]/kg[N applied]

 N uptake during growing season              220 kg[N uptake]/ha
   Dry Matter Productivity                  78.4 kg[DM]/kg[N uptake]
   Yield Productivity                       30.8 kg[yield]/kg[N uptake]

--------------------------------------------------------------------------------------------------------------

                     Maize YIELD :     6784 kg/ha    [Dry weight] 

**************************************************************************************************************

*DSSAT Cropping System Model Ver. 4.6.1.000 -release      OCT 02, 2017; 14:03:25
                                                                                
*RUN   6        : P04/27                    MZCER046 ANBU2009    6              
 MODEL          : MZCER046 - Maize                                              
 EXPERIMENT     : ANBU2009 MZ  Analisis a침os de bajo rendimiento Buga          
 DATA PATH      : C:\DSSAT46\maize\                                             
 TREATMENT  6   : P04/27                    MZCER046                            
                                                                                
                                                                                
 CROP           : Maize            CULTIVAR : DK234            ECOTYPE :IB0001  
 STARTING DATE  : MAR 28 2009                                                   
 PLANTING DATE  : APR 27 2009        PLANTS/m2 :  6.2     ROW SPACING :  80.cm  
 WEATHER        : CUNI   2009                                                   
 SOIL           : CCBUGA2017     TEXTURE : CL    -   Suelo Buga MADR Fase I     
 SOIL INITIAL C : DEPTH: 90cm EXTR. H2O: 83.9mm  NO3:151.4kg/ha  NH4: 62.4kg/ha 
 WATER BALANCE  : RAINFED                                                       
 IRRIGATION     : NOT IRRIGATED                                                 
 NITROGEN BAL.  : SOIL-N & N-UPTAKE SIMULATION; NO N-FIXATION                   
 N-FERTILIZER   :      161 kg/ha IN     5 APPLICATIONS                          
 RESIDUE/MANURE : INITIAL :     0 kg/ha ;       0 kg/ha IN     0 APPLICATIONS   
 ENVIRONM. OPT. : DAYL=    0.00  SRAD=    0.00  TMAX=    0.00  TMIN=    0.00    
                  RAIN=    0.00  CO2 =    0.00  DEW =    0.00  WIND=    0.00    
 SIMULATION OPT : WATER   :Y  NITROGEN:Y  N-FIX:N  PHOSPH :N  PESTS  :N         
                  PHOTO   :C  ET      :R  INFIL:S  HYDROL :R  SOM    :G         
                  CO2 387ppm  NSWIT   :1  EVAP :S  SOIL   :2  STEMP  :D         
 MANAGEMENT OPT : PLANTING:R  IRRIG   :N  FERT :D  RESIDUE:R  HARVEST:M         
                  WEATHER :M  TILLAGE :N                                        
                                                                                
*SUMMARY OF SOIL AND GENETIC INPUT PARAMETERS                                   
                                                                                
   SOIL LOWER UPPER   SAT  EXTR  INIT   ROOT   BULK     pH    NO3    NH4    ORG 
  DEPTH LIMIT LIMIT    SW    SW    SW   DIST   DENS                          C  
   cm   cm3/cm3    cm3/cm3    cm3/cm3         g/cm3         ugN/g  ugN/g     %  
------------------------------------------------------------------------------- 
  0-  5 0.215 0.331 0.341 0.116 0.319   1.00   1.68   6.70  11.90   4.21   0.75 
  5- 15 0.215 0.331 0.341 0.116 0.319   1.00   1.68   6.70  11.90   4.21   0.75 
 15- 25 0.215 0.331 0.341 0.116 0.319   1.00   1.68   6.70  11.90   4.21   0.75 
 25- 35 0.181 0.291 0.364 0.110 0.331   0.50   1.61   7.20  12.15   4.32   0.53 
 35- 45 0.181 0.291 0.364 0.110 0.344   0.50   1.61   7.20  12.40   4.44   0.53 
 45- 67 0.096 0.169 0.404 0.073 0.290   0.27   1.51   7.00  10.67   4.47   0.05 
 67- 90 0.096 0.169 0.404 0.073 0.195   0.27   1.51   7.00   7.63   4.53   0.05 
                                                                                
TOT- 90  13.3  21.7  34.0   8.4  25.6  <--cm   -  kg/ha-->  151.4   62.4  51964 
SOIL ALBEDO    : 0.09      EVAPORATION LIMIT : 6.00         MIN. FACTOR  : 1.00 
RUNOFF CURVE # :76.00      DRAINAGE RATE     : 0.60         FERT. FACTOR : 1.00 
                                                                                
 Maize      CULTIVAR :CI0002-DK234              ECOTYPE :IB0001                 
 P1     : 300.00  P2     : 0.4000  P5     :1075.00                              
 G2     : 890.00  G3     :  7.750  PHINT  : 40.000                              


*SIMULATED CROP AND SOIL STATUS AT MAIN DEVELOPMENT STAGES

 RUN NO.     6     P04/27                  

        CROP GROWTH     BIOMASS         LEAF   CROP N     STRESS      STRESS                                           
   DATE  AGE STAGE        kg/ha    LAI   NUM  kg/ha  %   H2O  Nitr Phos1 Phos2  RSTG                                   
 ------  --- ----------   -----  -----  ----  ---  ---  ----  ----  ----  ----  ----                                   
 28 MAR    0 Start Sim        0   0.00   0.0    0  0.0  0.00  0.00  0.00  0.00     7
 27 APR    0 Sowing           0   0.00   0.0    0  0.0  0.00  0.00  0.00  0.00     8
 28 APR    1 Germinate        0   0.00   0.0    0  0.0  0.00  0.00  0.00  0.00     9
  3 MAY    6 Emergence       25   0.00   2.1    1  4.4  0.00  0.01  0.00  0.00     1
 20 MAY   23 End Juveni     356   0.64  10.3   11  3.2  0.00  0.00  0.00  0.00     2
 28 MAY   31 Floral Ini    1111   1.58  13.8   40  3.6  0.03  0.00  0.00  0.00     3
  9 JUL   73 75% Silkin    9748   4.96  28.4  199  2.0  0.00  0.00  0.00  0.00     4
 19 JUL   83 Beg Gr Fil   12207   4.48  28.4  199  1.6  0.16  0.00  0.00  0.00     5
  5 SEP  131 End Gr Fil   16125   0.89  28.4  199  1.2  0.72  0.00  0.00  0.00     6
  8 SEP  134 Maturity     16125   0.89  28.4  199  1.2  1.00  0.00  0.00  0.00    10
  8 SEP  134 Harvest      16125   0.89  28.4  199  1.2  0.00  0.00  0.00  0.00    10


*MAIN GROWTH AND DEVELOPMENT VARIABLES

@     VARIABLE                                         SIMULATED     MEASURED
      --------                                         ---------     --------
      Anthesis day (dap)                                      73          -99
      Physiological maturity day (dap)                       134          -99
      Yield at harvest maturity (kg [dm]/ha)                5595          -99
      Number at maturity (no/m2)                            3243          -99
      Unit wt at maturity (g [dm]/unit)                   0.1725          -99
      Number at maturity (no/unit)                         523.0          -99
      Tops weight at maturity (kg [dm]/ha)                 16125          -99
      By-product produced (stalk) at maturity (kg[dm]/ha   10624          -99
      Leaf area index, maximum                              5.00          -99
      Harvest index at maturity                            0.347          -99
      Grain N at maturity (kg/ha)                            102          -99
      Tops N at maturity (kg/ha)                             199          -99
      Stem N at maturity (kg/ha)                              97          -99
      Grain N at maturity (%)                                1.8          -99
      Tops weight at anthesis (kg [dm]/ha)                  9473          -99
      Tops N at anthesis (kg/ha)                             197          -99
      Leaf number per stem at maturity                     28.41          -99
      Emergence day (dap)                                      6          -99


*ENVIRONMENTAL AND STRESS FACTORS

 |-----Development Phase------|--------------------------------------Environment--------------------------------------|-----------------Stress-----------------|
                              |---------------Average--------------|-----Cumulative-----|--------Count of days--------|          (0=Min, 1=Max Stress)         |
                         Time  Temp  Temp  Temp Solar Photop                Evapo    Pot TMIN TMIN TMAX TMAX TMAX RAIN|----Water----|---Nitrogen--|-Phosphorus-|
                         Span   Max   Min  Mean   Rad  [day]    CO2   Rain  Trans     ET   <    <    >    >    >    >   Photo         Photo         Photo
                         days    邂    邂    邂 MJ/m2     hr    ppm     mm     mm     mm  0邂  2邂 30邂 32邂 34邂  0mm  synth Growth  synth Growth  synth Growth
----------------------------------------------------------------------------------------------------------------------------------------------------------------
 Emergence-End Juvenile    17  31.2  18.5  24.9  16.8  24.00  387.0   13.1   32.7   78.9    0    0   13    2    0    6  0.000  0.000  0.002  0.005  0.000  0.000
 End Juvenil-Floral Init    8  32.1  19.0  25.5  15.1  24.00  387.1    4.9   20.0   31.4    0    0    7    4    0    2  0.000  0.018  0.001  0.001  0.000  0.000
 Floral Init-End Lf Grow   42  29.7  18.7  24.2  15.5  24.00  387.2  205.2  152.6  153.6    0    0   13    4    1   18  0.000  0.002  0.000  0.000  0.000  0.000
 End Lf Grth-Beg Grn Fil   10  31.7  17.9  24.8  18.0  24.00  387.3    0.0   40.5   42.5    0    0    9    3    0    0  0.038  0.088  0.000  0.000  0.000  0.000
 Grain Filling Phase       48  32.7  18.7  25.7  17.9  23.46  387.5   67.0   86.1  215.4    0    0   43   26    9   13  0.668  0.714  0.000  0.000  0.000  0.000


 Planting to Harvest      134  31.4  18.7  25.1  16.8  23.66  387.3  324.5  351.2  565.5    0    0   91   44   14   44  0.265  0.287  0.000  0.001  0.000  0.000
----------------------------------------------------------------------------------------------------------------------------------------------------------------


*Resource Productivity
 Growing season length: 134 days 

 Precipitation during growing season       324.5 mm[rain]
   Dry Matter Productivity                  4.97 kg[DM]/m3[rain]          =   49.7 kg[DM]/ha per mm[rain]
   Yield Productivity                       1.72 kg[grain yield]/m3[rain] =   17.2 kg[yield]/ha per mm[rain]

 Evapotranspiration during growing season  351.2 mm[ET]
   Dry Matter Productivity                  4.59 kg[DM]/m3[ET]            =   45.9 kg[DM]/ha per mm[ET]
   Yield Productivity                       1.59 kg[grain yield]/m3[ET]   =   15.9 kg[yield]/ha per mm[ET]

 Transpiration during growing season       245.2 mm[EP]
   Dry Matter Productivity                  6.58 kg[DM]/m3[EP]            =   65.8 kg[DM]/ha per mm[EP]
   Yield Productivity                       2.28 kg[grain yield]/m3[EP]   =   22.8 kg[yield]/ha per mm[EP]

 N applied during growing season            161. kg[N applied]/ha
   Dry Matter Productivity                 100.2 kg[DM]/kg[N applied]
   Yield Productivity                       34.8 kg[yield]/kg[N applied]

 N uptake during growing season              219 kg[N uptake]/ha
   Dry Matter Productivity                  73.6 kg[DM]/kg[N uptake]
   Yield Productivity                       25.5 kg[yield]/kg[N uptake]

--------------------------------------------------------------------------------------------------------------

                     Maize YIELD :     5595 kg/ha    [Dry weight] 

**************************************************************************************************************

*DSSAT Cropping System Model Ver. 4.6.1.000 -release      OCT 02, 2017; 14:03:25
                                                                                
*RUN   7        : P05/02                    MZCER046 ANBU2009    7              
 MODEL          : MZCER046 - Maize                                              
 EXPERIMENT     : ANBU2009 MZ  Analisis a침os de bajo rendimiento Buga          
 DATA PATH      : C:\DSSAT46\maize\                                             
 TREATMENT  7   : P05/02                    MZCER046                            
                                                                                
                                                                                
 CROP           : Maize            CULTIVAR : DK234            ECOTYPE :IB0001  
 STARTING DATE  : APR  2 2009                                                   
 PLANTING DATE  : MAY  2 2009        PLANTS/m2 :  6.2     ROW SPACING :  80.cm  
 WEATHER        : CUNI   2009                                                   
 SOIL           : CCBUGA2017     TEXTURE : CL    -   Suelo Buga MADR Fase I     
 SOIL INITIAL C : DEPTH: 90cm EXTR. H2O: 83.9mm  NO3:151.4kg/ha  NH4: 62.4kg/ha 
 WATER BALANCE  : RAINFED                                                       
 IRRIGATION     : NOT IRRIGATED                                                 
 NITROGEN BAL.  : SOIL-N & N-UPTAKE SIMULATION; NO N-FIXATION                   
 N-FERTILIZER   :      161 kg/ha IN     5 APPLICATIONS                          
 RESIDUE/MANURE : INITIAL :     0 kg/ha ;       0 kg/ha IN     0 APPLICATIONS   
 ENVIRONM. OPT. : DAYL=    0.00  SRAD=    0.00  TMAX=    0.00  TMIN=    0.00    
                  RAIN=    0.00  CO2 =    0.00  DEW =    0.00  WIND=    0.00    
 SIMULATION OPT : WATER   :Y  NITROGEN:Y  N-FIX:N  PHOSPH :N  PESTS  :N         
                  PHOTO   :C  ET      :R  INFIL:S  HYDROL :R  SOM    :G         
                  CO2 387ppm  NSWIT   :1  EVAP :S  SOIL   :2  STEMP  :D         
 MANAGEMENT OPT : PLANTING:R  IRRIG   :N  FERT :D  RESIDUE:R  HARVEST:M         
                  WEATHER :M  TILLAGE :N                                        
                                                                                
*SUMMARY OF SOIL AND GENETIC INPUT PARAMETERS                                   
                                                                                
   SOIL LOWER UPPER   SAT  EXTR  INIT   ROOT   BULK     pH    NO3    NH4    ORG 
  DEPTH LIMIT LIMIT    SW    SW    SW   DIST   DENS                          C  
   cm   cm3/cm3    cm3/cm3    cm3/cm3         g/cm3         ugN/g  ugN/g     %  
------------------------------------------------------------------------------- 
  0-  5 0.215 0.331 0.341 0.116 0.319   1.00   1.68   6.70  11.90   4.21   0.75 
  5- 15 0.215 0.331 0.341 0.116 0.319   1.00   1.68   6.70  11.90   4.21   0.75 
 15- 25 0.215 0.331 0.341 0.116 0.319   1.00   1.68   6.70  11.90   4.21   0.75 
 25- 35 0.181 0.291 0.364 0.110 0.331   0.50   1.61   7.20  12.15   4.32   0.53 
 35- 45 0.181 0.291 0.364 0.110 0.344   0.50   1.61   7.20  12.40   4.44   0.53 
 45- 67 0.096 0.169 0.404 0.073 0.290   0.27   1.51   7.00  10.67   4.47   0.05 
 67- 90 0.096 0.169 0.404 0.073 0.195   0.27   1.51   7.00   7.63   4.53   0.05 
                                                                                
TOT- 90  13.3  21.7  34.0   8.4  25.6  <--cm   -  kg/ha-->  151.4   62.4  51964 
SOIL ALBEDO    : 0.09      EVAPORATION LIMIT : 6.00         MIN. FACTOR  : 1.00 
RUNOFF CURVE # :76.00      DRAINAGE RATE     : 0.60         FERT. FACTOR : 1.00 
                                                                                
 Maize      CULTIVAR :CI0002-DK234              ECOTYPE :IB0001                 
 P1     : 300.00  P2     : 0.4000  P5     :1075.00                              
 G2     : 890.00  G3     :  7.750  PHINT  : 40.000                              


*SIMULATED CROP AND SOIL STATUS AT MAIN DEVELOPMENT STAGES

 RUN NO.     7     P05/02                  

        CROP GROWTH     BIOMASS         LEAF   CROP N     STRESS      STRESS                                           
   DATE  AGE STAGE        kg/ha    LAI   NUM  kg/ha  %   H2O  Nitr Phos1 Phos2  RSTG                                   
 ------  --- ----------   -----  -----  ----  ---  ---  ----  ----  ----  ----  ----                                   
  2 APR    0 Start Sim        0   0.00   0.0    0  0.0  0.00  0.00  0.00  0.00     7
  2 MAY    0 Sowing           0   0.00   0.0    0  0.0  0.00  0.00  0.00  0.00     8
  3 MAY    1 Germinate        0   0.00   0.0    0  0.0  0.00  0.00  0.00  0.00     9
  8 MAY    6 Emergence       25   0.00   2.2    1  4.4  0.00  0.01  0.00  0.00     1
 24 MAY   22 End Juveni     318   0.58   9.9   10  3.3  0.02  0.00  0.00  0.00     2
  1 JUN   30 Floral Ini     957   1.40  13.4   34  3.6  0.02  0.00  0.00  0.00     3
 12 JUL   71 75% Silkin    9166   4.80  27.5  186  2.0  0.00  0.00  0.00  0.00     4
 22 JUL   81 Beg Gr Fil   11034   4.13  27.5  186  1.7  0.34  0.00  0.00  0.00     5
  8 SEP  129 End Gr Fil   14278   0.76  27.5  186  1.3  0.75  0.00  0.00  0.00     6
 11 SEP  132 Maturity     14278   0.76  27.5  186  1.3  1.00  0.00  0.00  0.00    10
 11 SEP  132 Harvest      14278   0.76  27.5  186  1.3  0.00  0.00  0.00  0.00    10


*MAIN GROWTH AND DEVELOPMENT VARIABLES

@     VARIABLE                                         SIMULATED     MEASURED
      --------                                         ---------     --------
      Anthesis day (dap)                                      71          -99
      Physiological maturity day (dap)                       132          -99
      Yield at harvest maturity (kg [dm]/ha)                5084          -99
      Number at maturity (no/m2)                            2673          -99
      Unit wt at maturity (g [dm]/unit)                   0.1902          -99
      Number at maturity (no/unit)                         431.1          -99
      Tops weight at maturity (kg [dm]/ha)                 14278          -99
      By-product produced (stalk) at maturity (kg[dm]/ha    9280          -99
      Leaf area index, maximum                              4.83          -99
      Harvest index at maturity                            0.356          -99
      Grain N at maturity (kg/ha)                             93          -99
      Tops N at maturity (kg/ha)                             186          -99
      Stem N at maturity (kg/ha)                              94          -99
      Grain N at maturity (%)                                1.8          -99
      Tops weight at anthesis (kg [dm]/ha)                  8838          -99
      Tops N at anthesis (kg/ha)                             185          -99
      Leaf number per stem at maturity                     27.52          -99
      Emergence day (dap)                                      6          -99


*ENVIRONMENTAL AND STRESS FACTORS

 |-----Development Phase------|--------------------------------------Environment--------------------------------------|-----------------Stress-----------------|
                              |---------------Average--------------|-----Cumulative-----|--------Count of days--------|          (0=Min, 1=Max Stress)         |
                         Time  Temp  Temp  Temp Solar Photop                Evapo    Pot TMIN TMIN TMAX TMAX TMAX RAIN|----Water----|---Nitrogen--|-Phosphorus-|
                         Span   Max   Min  Mean   Rad  [day]    CO2   Rain  Trans     ET   <    <    >    >    >    >   Photo         Photo         Photo
                         days    邂    邂    邂 MJ/m2     hr    ppm     mm     mm     mm  0邂  2邂 30邂 32邂 34邂  0mm  synth Growth  synth Growth  synth Growth
----------------------------------------------------------------------------------------------------------------------------------------------------------------
 Emergence-End Juvenile    16  31.8  18.4  25.1  16.0  24.00  387.0    8.3   19.0   70.6    0    0   13    4    0    5  0.000  0.005  0.002  0.005  0.000  0.000
 End Juvenil-Floral Init    8  31.3  19.0  25.1  16.5  24.00  387.1   33.1   23.9   34.4    0    0    5    3    0    4  0.000  0.045  0.000  0.000  0.000  0.000
 Floral Init-End Lf Grow   41  29.7  18.7  24.2  15.6  24.00  387.2  174.0  149.0  152.0    0    0   14    3    1   15  0.000  0.000  0.000  0.000  0.000  0.000
 End Lf Grth-Beg Grn Fil   10  32.6  18.1  25.4  18.5  24.00  387.4   10.0   33.5   44.3    0    0   10    5    0    1  0.239  0.338  0.000  0.000  0.000  0.000
 Grain Filling Phase       48  32.8  18.7  25.8  18.0  23.05  387.6   57.0   82.4  218.9    0    0   43   27   12   12  0.689  0.729  0.000  0.000  0.000  0.000


 Planting to Harvest      132  31.5  18.7  25.1  16.9  23.48  387.3  296.3  327.8  561.0    0    0   92   45   14   40  0.291  0.316  0.000  0.001  0.000  0.000
----------------------------------------------------------------------------------------------------------------------------------------------------------------


*Resource Productivity
 Growing season length: 132 days 

 Precipitation during growing season       296.3 mm[rain]
   Dry Matter Productivity                  4.82 kg[DM]/m3[rain]          =   48.2 kg[DM]/ha per mm[rain]
   Yield Productivity                       1.72 kg[grain yield]/m3[rain] =   17.2 kg[yield]/ha per mm[rain]

 Evapotranspiration during growing season  327.8 mm[ET]
   Dry Matter Productivity                  4.35 kg[DM]/m3[ET]            =   43.5 kg[DM]/ha per mm[ET]
   Yield Productivity                       1.55 kg[grain yield]/m3[ET]   =   15.5 kg[yield]/ha per mm[ET]

 Transpiration during growing season       224.8 mm[EP]
   Dry Matter Productivity                  6.35 kg[DM]/m3[EP]            =   63.5 kg[DM]/ha per mm[EP]
   Yield Productivity                       2.26 kg[grain yield]/m3[EP]   =   22.6 kg[yield]/ha per mm[EP]

 N applied during growing season            161. kg[N applied]/ha
   Dry Matter Productivity                  88.7 kg[DM]/kg[N applied]
   Yield Productivity                       31.6 kg[yield]/kg[N applied]

 N uptake during growing season              206 kg[N uptake]/ha
   Dry Matter Productivity                  69.3 kg[DM]/kg[N uptake]
   Yield Productivity                       24.7 kg[yield]/kg[N uptake]

--------------------------------------------------------------------------------------------------------------

                     Maize YIELD :     5084 kg/ha    [Dry weight] 

**************************************************************************************************************

*DSSAT Cropping System Model Ver. 4.6.1.000 -release      OCT 02, 2017; 14:03:25
                                                                                
*RUN   8        : P05/07                    MZCER046 ANBU2009    8              
 MODEL          : MZCER046 - Maize                                              
 EXPERIMENT     : ANBU2009 MZ  Analisis a침os de bajo rendimiento Buga          
 DATA PATH      : C:\DSSAT46\maize\                                             
 TREATMENT  8   : P05/07                    MZCER046                            
                                                                                
                                                                                
 CROP           : Maize            CULTIVAR : DK234            ECOTYPE :IB0001  
 STARTING DATE  : APR  7 2009                                                   
 PLANTING DATE  : MAY  7 2009        PLANTS/m2 :  6.2     ROW SPACING :  80.cm  
 WEATHER        : CUNI   2009                                                   
 SOIL           : CCBUGA2017     TEXTURE : CL    -   Suelo Buga MADR Fase I     
 SOIL INITIAL C : DEPTH: 90cm EXTR. H2O: 83.9mm  NO3:151.4kg/ha  NH4: 62.4kg/ha 
 WATER BALANCE  : RAINFED                                                       
 IRRIGATION     : NOT IRRIGATED                                                 
 NITROGEN BAL.  : SOIL-N & N-UPTAKE SIMULATION; NO N-FIXATION                   
 N-FERTILIZER   :      161 kg/ha IN     5 APPLICATIONS                          
 RESIDUE/MANURE : INITIAL :     0 kg/ha ;       0 kg/ha IN     0 APPLICATIONS   
 ENVIRONM. OPT. : DAYL=    0.00  SRAD=    0.00  TMAX=    0.00  TMIN=    0.00    
                  RAIN=    0.00  CO2 =    0.00  DEW =    0.00  WIND=    0.00    
 SIMULATION OPT : WATER   :Y  NITROGEN:Y  N-FIX:N  PHOSPH :N  PESTS  :N         
                  PHOTO   :C  ET      :R  INFIL:S  HYDROL :R  SOM    :G         
                  CO2 387ppm  NSWIT   :1  EVAP :S  SOIL   :2  STEMP  :D         
 MANAGEMENT OPT : PLANTING:R  IRRIG   :N  FERT :D  RESIDUE:R  HARVEST:M         
                  WEATHER :M  TILLAGE :N                                        
                                                                                
*SUMMARY OF SOIL AND GENETIC INPUT PARAMETERS                                   
                                                                                
   SOIL LOWER UPPER   SAT  EXTR  INIT   ROOT   BULK     pH    NO3    NH4    ORG 
  DEPTH LIMIT LIMIT    SW    SW    SW   DIST   DENS                          C  
   cm   cm3/cm3    cm3/cm3    cm3/cm3         g/cm3         ugN/g  ugN/g     %  
------------------------------------------------------------------------------- 
  0-  5 0.215 0.331 0.341 0.116 0.319   1.00   1.68   6.70  11.90   4.21   0.75 
  5- 15 0.215 0.331 0.341 0.116 0.319   1.00   1.68   6.70  11.90   4.21   0.75 
 15- 25 0.215 0.331 0.341 0.116 0.319   1.00   1.68   6.70  11.90   4.21   0.75 
 25- 35 0.181 0.291 0.364 0.110 0.331   0.50   1.61   7.20  12.15   4.32   0.53 
 35- 45 0.181 0.291 0.364 0.110 0.344   0.50   1.61   7.20  12.40   4.44   0.53 
 45- 67 0.096 0.169 0.404 0.073 0.290   0.27   1.51   7.00  10.67   4.47   0.05 
 67- 90 0.096 0.169 0.404 0.073 0.195   0.27   1.51   7.00   7.63   4.53   0.05 
                                                                                
TOT- 90  13.3  21.7  34.0   8.4  25.6  <--cm   -  kg/ha-->  151.4   62.4  51964 
SOIL ALBEDO    : 0.09      EVAPORATION LIMIT : 6.00         MIN. FACTOR  : 1.00 
RUNOFF CURVE # :76.00      DRAINAGE RATE     : 0.60         FERT. FACTOR : 1.00 
                                                                                
 Maize      CULTIVAR :CI0002-DK234              ECOTYPE :IB0001                 
 P1     : 300.00  P2     : 0.4000  P5     :1075.00                              
 G2     : 890.00  G3     :  7.750  PHINT  : 40.000                              


*SIMULATED CROP AND SOIL STATUS AT MAIN DEVELOPMENT STAGES

 RUN NO.     8     P05/07                  

        CROP GROWTH     BIOMASS         LEAF   CROP N     STRESS      STRESS                                           
   DATE  AGE STAGE        kg/ha    LAI   NUM  kg/ha  %   H2O  Nitr Phos1 Phos2  RSTG                                   
 ------  --- ----------   -----  -----  ----  ---  ---  ----  ----  ----  ----  ----                                   
  7 APR    0 Start Sim        0   0.00   0.0    0  0.0  0.00  0.00  0.00  0.00     7
  7 MAY    0 Sowing           0   0.00   0.0    0  0.0  0.00  0.00  0.00  0.00     8
  8 MAY    1 Germinate        0   0.00   0.0    0  0.0  0.00  0.00  0.00  0.00     9
 13 MAY    6 Emergence       25   0.00   2.2    1  4.4  0.00  0.01  0.00  0.00     1
 29 MAY   22 End Juveni     313   0.57   9.9   11  3.4  0.05  0.00  0.00  0.00     2
  6 JUN   30 Floral Ini     813   1.23  13.5   29  3.6  0.00  0.00  0.00  0.00     3
 18 JUL   72 75% Silkin    9443   4.65  27.8  195  2.1  0.04  0.00  0.00  0.00     4
 28 JUL   82 Beg Gr Fil   10340   3.49  27.8  195  1.9  0.67  0.00  0.00  0.00     5
 13 SEP  129 End Gr Fil   12642   0.60  27.8  195  1.5  0.78  0.00  0.00  0.00     6
 16 SEP  132 Maturity     12642   0.60  27.8  195  1.5  0.33  0.00  0.00  0.00    10
[...]
 NITROGEN BAL.  : SOIL-N & N-UPTAKE SIMULATION; NO N-FIXATION                   
 N-FERTILIZER   :      161 kg/ha IN     5 APPLICATIONS                          
 RESIDUE/MANURE : INITIAL :     0 kg/ha ;       0 kg/ha IN     0 APPLICATIONS   
 ENVIRONM. OPT. : DAYL=    0.00  SRAD=    0.00  TMAX=    0.00  TMIN=    0.00    
                  RAIN=    0.00  CO2 =    0.00  DEW =    0.00  WIND=    0.00    
 SIMULATION OPT : WATER   :Y  NITROGEN:Y  N-FIX:N  PHOSPH :N  PESTS  :N         
                  PHOTO   :C  ET      :R  INFIL:S  HYDROL :R  SOM    :G         
                  CO2 388ppm  NSWIT   :1  EVAP :S  SOIL   :2  STEMP  :D         
 MANAGEMENT OPT : PLANTING:R  IRRIG   :N  FERT :D  RESIDUE:R  HARVEST:M         
                  WEATHER :M  TILLAGE :N                                        
                                                                                
*SUMMARY OF SOIL AND GENETIC INPUT PARAMETERS                                   
                                                                                
   SOIL LOWER UPPER   SAT  EXTR  INIT   ROOT   BULK     pH    NO3    NH4    ORG 
  DEPTH LIMIT LIMIT    SW    SW    SW   DIST   DENS                          C  
   cm   cm3/cm3    cm3/cm3    cm3/cm3         g/cm3         ugN/g  ugN/g     %  
------------------------------------------------------------------------------- 
  0-  5 0.215 0.331 0.341 0.116 0.319   1.00   1.68   6.70  11.90   4.21   0.75 
  5- 15 0.215 0.331 0.341 0.116 0.319   1.00   1.68   6.70  11.90   4.21   0.75 
 15- 25 0.215 0.331 0.341 0.116 0.319   1.00   1.68   6.70  11.90   4.21   0.75 
 25- 35 0.181 0.291 0.364 0.110 0.331   0.50   1.61   7.20  12.15   4.32   0.53 
 35- 45 0.181 0.291 0.364 0.110 0.344   0.50   1.61   7.20  12.40   4.44   0.53 
 45- 67 0.096 0.169 0.404 0.073 0.290   0.27   1.51   7.00  10.67   4.47   0.05 
 67- 90 0.096 0.169 0.404 0.073 0.195   0.27   1.51   7.00   7.63   4.53   0.05 
                                                                                
TOT- 90  13.3  21.7  34.0   8.4  25.6  <--cm   -  kg/ha-->  151.4   62.4  51964 
SOIL ALBEDO    : 0.09      EVAPORATION LIMIT : 6.00         MIN. FACTOR  : 1.00 
RUNOFF CURVE # :76.00      DRAINAGE RATE     : 0.60         FERT. FACTOR : 1.00 
                                                                                
 Maize      CULTIVAR :CI0002-DK234              ECOTYPE :IB0001                 
 P1     : 300.00  P2     : 0.4000  P5     :1075.00                              
 G2     : 890.00  G3     :  7.750  PHINT  : 40.000                              


*SIMULATED CROP AND SOIL STATUS AT MAIN DEVELOPMENT STAGES

 RUN NO.    35     P12/14                  

        CROP GROWTH     BIOMASS         LEAF   CROP N     STRESS      STRESS                                           
   DATE  AGE STAGE        kg/ha    LAI   NUM  kg/ha  %   H2O  Nitr Phos1 Phos2  RSTG                                   
 ------  --- ----------   -----  -----  ----  ---  ---  ----  ----  ----  ----  ----                                   
 14 NOV    0 Start Sim        0   0.00   0.0    0  0.0  0.00  0.00  0.00  0.00     7
 14 DEC    0 Sowing           0   0.00   0.0    0  0.0  0.00  0.00  0.00  0.00     8
 15 DEC    1 Germinate        0   0.00   0.0    0  0.0  0.00  0.00  0.00  0.00     9
 20 DEC    6 Emergence       25   0.00   2.1    1  4.4  0.00  0.01  0.00  0.00     1
  6 JAN   23 End Juveni     312   0.57  10.3   10  3.3  0.00  0.00  0.00  0.00     2
 10 JAN   27 Floral Ini     692   1.09  12.1   25  3.7  0.00  0.00  0.00  0.00     3
 13 FEB   61 75% Silkin    3074   1.18  25.3   79  2.6  0.66  0.00  0.00  0.00     4
 22 FEB   70 Beg Gr Fil    2907   0.78  25.3   79  2.7  0.93  0.00  0.00  0.00     5
  8 APR  115 End Gr Fil    3963   0.26  25.3   79  2.0  0.52  0.00  0.00  0.00     6
 12 APR  119 Maturity      3963   0.26  25.3   79  2.0  0.00  0.00  0.00  0.00    10
 12 APR  119 Harvest       3963   0.26  25.3   79  2.0  0.00  0.00  0.00  0.00    10


*MAIN GROWTH AND DEVELOPMENT VARIABLES

@     VARIABLE                                         SIMULATED     MEASURED
      --------                                         ---------     --------
      Anthesis day (dap)                                      61          -99
      Physiological maturity day (dap)                       119          -99
      Yield at harvest maturity (kg [dm]/ha)                 863          -99
      Number at maturity (no/m2)                             352          -99
      Unit wt at maturity (g [dm]/unit)                   0.2448          -99
      Number at maturity (no/unit)                          70.2          -99
      Tops weight at maturity (kg [dm]/ha)                  3963          -99
      By-product produced (stalk) at maturity (kg[dm]/ha    3150          -99
      Leaf area index, maximum                              2.18          -99
      Harvest index at maturity                            0.218          -99
      Grain N at maturity (kg/ha)                             16          -99
      Tops N at maturity (kg/ha)                              79          -99
      Stem N at maturity (kg/ha)                              60          -99
      Grain N at maturity (%)                                1.8          -99
      Tops weight at anthesis (kg [dm]/ha)                  3082          -99
      Tops N at anthesis (kg/ha)                              79          -99
      Leaf number per stem at maturity                     25.25          -99
      Emergence day (dap)                                      6          -99


*ENVIRONMENTAL AND STRESS FACTORS

 |-----Development Phase------|--------------------------------------Environment--------------------------------------|-----------------Stress-----------------|
                              |---------------Average--------------|-----Cumulative-----|--------Count of days--------|          (0=Min, 1=Max Stress)         |
                         Time  Temp  Temp  Temp Solar Photop                Evapo    Pot TMIN TMIN TMAX TMAX TMAX RAIN|----Water----|---Nitrogen--|-Phosphorus-|
                         Span   Max   Min  Mean   Rad  [day]    CO2   Rain  Trans     ET   <    <    >    >    >    >   Photo         Photo         Photo
                         days    邂    邂    邂 MJ/m2     hr    ppm     mm     mm     mm  0邂  2邂 30邂 32邂 34邂  0mm  synth Growth  synth Growth  synth Growth
----------------------------------------------------------------------------------------------------------------------------------------------------------------
 Emergence-End Juvenile    17  31.0  18.8  24.9  16.6   0.00  388.5   30.6   44.0   78.2    0    0   10    5    0    4  0.000  0.000  0.002  0.005  0.000  0.000
 End Juvenil-Floral Init    4  32.9  18.6  25.7  19.1   0.00  388.5    0.3    9.5   20.3    0    0    4    2    0    1  0.000  0.000  0.001  0.002  0.000  0.000
 Floral Init-End Lf Grow   34  33.3  19.1  26.2  18.2   0.00  388.7   15.7   63.7  158.4    0    0   30   23   14    5  0.522  0.633  0.000  0.000  0.000  0.000
 End Lf Grth-Beg Grn Fil    9  33.8  20.4  27.1  15.6   0.00  389.0    4.2    9.8   37.5    0    0    9    9    1    1  0.897  0.932  0.000  0.000  0.000  0.000
 Grain Filling Phase       45  33.2  20.3  26.8  16.6   9.24  389.1  102.3   71.1  208.4    0    0   42   33   14   16  0.496  0.546  0.000  0.000  0.000  0.000


 Planting to Harvest      119  32.7  19.6  26.2  16.9   4.14  388.9  206.0  215.5  543.1    0    0  100   75   29   33  0.405  0.458  0.000  0.001  0.000  0.000
----------------------------------------------------------------------------------------------------------------------------------------------------------------


*Resource Productivity
 Growing season length: 119 days 

 Precipitation during growing season       206.0 mm[rain]
   Dry Matter Productivity                  1.92 kg[DM]/m3[rain]          =   19.2 kg[DM]/ha per mm[rain]
   Yield Productivity                       0.42 kg[grain yield]/m3[rain] =    4.2 kg[yield]/ha per mm[rain]

 Evapotranspiration during growing season  215.5 mm[ET]
   Dry Matter Productivity                  1.84 kg[DM]/m3[ET]            =   18.4 kg[DM]/ha per mm[ET]
   Yield Productivity                       0.40 kg[grain yield]/m3[ET]   =    4.0 kg[yield]/ha per mm[ET]

 Transpiration during growing season        87.6 mm[EP]
   Dry Matter Productivity                  4.53 kg[DM]/m3[EP]            =   45.3 kg[DM]/ha per mm[EP]
   Yield Productivity                       0.99 kg[grain yield]/m3[EP]   =    9.9 kg[yield]/ha per mm[EP]

 N applied during growing season            161. kg[N applied]/ha
   Dry Matter Productivity                  24.6 kg[DM]/kg[N applied]
   Yield Productivity                        5.4 kg[yield]/kg[N applied]

 N uptake during growing season               88 kg[N uptake]/ha
   Dry Matter Productivity                  45.0 kg[DM]/kg[N uptake]
   Yield Productivity                        9.8 kg[yield]/kg[N uptake]

--------------------------------------------------------------------------------------------------------------

                     Maize YIELD :      863 kg/ha    [Dry weight] 

**************************************************************************************************************

*DSSAT Cropping System Model Ver. 4.6.1.000 -release      OCT 02, 2017; 14:03:31
                                                                                
*RUN  36        : P12/19                    MZCER046 ANBU2009   36              
 MODEL          : MZCER046 - Maize                                              
 EXPERIMENT     : ANBU2009 MZ  Analisis a침os de bajo rendimiento Buga          
 DATA PATH      : C:\DSSAT46\maize\                                             
 TREATMENT 36   : P12/19                    MZCER046                            
                                                                                
                                                                                
 CROP           : Maize            CULTIVAR : DK234            ECOTYPE :IB0001  
 STARTING DATE  : NOV 19 2009                                                   
 PLANTING DATE  : DEC 19 2009        PLANTS/m2 :  6.2     ROW SPACING :  80.cm  
 WEATHER        : CUNI   2009                                                   
 SOIL           : CCBUGA2017     TEXTURE : CL    -   Suelo Buga MADR Fase I     
 SOIL INITIAL C : DEPTH: 90cm EXTR. H2O: 83.9mm  NO3:151.4kg/ha  NH4: 62.4kg/ha 
 WATER BALANCE  : RAINFED                                                       
 IRRIGATION     : NOT IRRIGATED                                                 
 NITROGEN BAL.  : SOIL-N & N-UPTAKE SIMULATION; NO N-FIXATION                   
 N-FERTILIZER   :      161 kg/ha IN     5 APPLICATIONS                          
 RESIDUE/MANURE : INITIAL :     0 kg/ha ;       0 kg/ha IN     0 APPLICATIONS   
 ENVIRONM. OPT. : DAYL=    0.00  SRAD=    0.00  TMAX=    0.00  TMIN=    0.00    
                  RAIN=    0.00  CO2 =    0.00  DEW =    0.00  WIND=    0.00    
 SIMULATION OPT : WATER   :Y  NITROGEN:Y  N-FIX:N  PHOSPH :N  PESTS  :N         
                  PHOTO   :C  ET      :R  INFIL:S  HYDROL :R  SOM    :G         
                  CO2 388ppm  NSWIT   :1  EVAP :S  SOIL   :2  STEMP  :D         
 MANAGEMENT OPT : PLANTING:R  IRRIG   :N  FERT :D  RESIDUE:R  HARVEST:M         
                  WEATHER :M  TILLAGE :N                                        
                                                                                
*SUMMARY OF SOIL AND GENETIC INPUT PARAMETERS                                   
                                                                                
   SOIL LOWER UPPER   SAT  EXTR  INIT   ROOT   BULK     pH    NO3    NH4    ORG 
  DEPTH LIMIT LIMIT    SW    SW    SW   DIST   DENS                          C  
   cm   cm3/cm3    cm3/cm3    cm3/cm3         g/cm3         ugN/g  ugN/g     %  
------------------------------------------------------------------------------- 
  0-  5 0.215 0.331 0.341 0.116 0.319   1.00   1.68   6.70  11.90   4.21   0.75 
  5- 15 0.215 0.331 0.341 0.116 0.319   1.00   1.68   6.70  11.90   4.21   0.75 
 15- 25 0.215 0.331 0.341 0.116 0.319   1.00   1.68   6.70  11.90   4.21   0.75 
 25- 35 0.181 0.291 0.364 0.110 0.331   0.50   1.61   7.20  12.15   4.32   0.53 
 35- 45 0.181 0.291 0.364 0.110 0.344   0.50   1.61   7.20  12.40   4.44   0.53 
 45- 67 0.096 0.169 0.404 0.073 0.290   0.27   1.51   7.00  10.67   4.47   0.05 
 67- 90 0.096 0.169 0.404 0.073 0.195   0.27   1.51   7.00   7.63   4.53   0.05 
                                                                                
TOT- 90  13.3  21.7  34.0   8.4  25.6  <--cm   -  kg/ha-->  151.4   62.4  51964 
SOIL ALBEDO    : 0.09      EVAPORATION LIMIT : 6.00         MIN. FACTOR  : 1.00 
RUNOFF CURVE # :76.00      DRAINAGE RATE     : 0.60         FERT. FACTOR : 1.00 
                                                                                
 Maize      CULTIVAR :CI0002-DK234              ECOTYPE :IB0001                 
 P1     : 300.00  P2     : 0.4000  P5     :1075.00                              
 G2     : 890.00  G3     :  7.750  PHINT  : 40.000                              


*SIMULATED CROP AND SOIL STATUS AT MAIN DEVELOPMENT STAGES

 RUN NO.    36     P12/19                  

        CROP GROWTH     BIOMASS         LEAF   CROP N     STRESS      STRESS                                           
   DATE  AGE STAGE        kg/ha    LAI   NUM  kg/ha  %   H2O  Nitr Phos1 Phos2  RSTG                                   
 ------  --- ----------   -----  -----  ----  ---  ---  ----  ----  ----  ----  ----                                   
 19 NOV    0 Start Sim        0   0.00   0.0    0  0.0  0.00  0.00  0.00  0.00     7
 19 DEC    0 Sowing           0   0.00   0.0    0  0.0  0.00  0.00  0.00  0.00     8
 20 DEC    1 Germinate        0   0.00   0.0    0  0.0  0.00  0.00  0.00  0.00     9
 25 DEC    6 Emergence       25   0.00   2.2    1  4.4  0.00  0.01  0.00  0.00     1
 10 JAN   22 End Juveni     301   0.55  10.0   10  3.4  0.00  0.00  0.00  0.00     2
 14 JAN   26 Floral Ini     668   1.06  11.9   25  3.7  0.00  0.00  0.00  0.00     3
 17 FEB   60 75% Silkin    3005   1.17  24.5   75  2.5  0.66  0.00  0.00  0.00     4
 26 FEB   69 Beg Gr Fil    2839   0.78  24.5   75  2.6  0.93  0.00  0.00  0.00     5
 13 APR  115 End Gr Fil    3993   0.30  24.5   75  1.9  0.44  0.00  0.00  0.00     6
 16 APR  118 Maturity      3993   0.30  24.5   75  1.9  0.00  0.00  0.00  0.00    10
 16 APR  118 Harvest       3993   0.30  24.5   75  1.9  0.00  0.00  0.00  0.00    10


*MAIN GROWTH AND DEVELOPMENT VARIABLES

@     VARIABLE                                         SIMULATED     MEASURED
      --------                                         ---------     --------
      Anthesis day (dap)                                      60          -99
      Physiological maturity day (dap)                       118          -99
      Yield at harvest maturity (kg [dm]/ha)                 945          -99
      Number at maturity (no/m2)                             355          -99
      Unit wt at maturity (g [dm]/unit)                   0.2661          -99
      Number at maturity (no/unit)                          70.7          -99
      Tops weight at maturity (kg [dm]/ha)                  3993          -99
      By-product produced (stalk) at maturity (kg[dm]/ha    3096          -99
      Leaf area index, maximum                              2.11          -99
      Harvest index at maturity                            0.237          -99
      Grain N at maturity (kg/ha)                             17          -99
      Tops N at maturity (kg/ha)                              75          -99
      Stem N at maturity (kg/ha)                              54          -99
      Grain N at maturity (%)                                1.8          -99
      Tops weight at anthesis (kg [dm]/ha)                  3008          -99
      Tops N at anthesis (kg/ha)                              75          -99
      Leaf number per stem at maturity                     24.49          -99
      Emergence day (dap)                                      6          -99


*ENVIRONMENTAL AND STRESS FACTORS

 |-----Development Phase------|--------------------------------------Environment--------------------------------------|-----------------Stress-----------------|
                              |---------------Average--------------|-----Cumulative-----|--------Count of days--------|          (0=Min, 1=Max Stress)         |
                         Time  Temp  Temp  Temp Solar Photop                Evapo    Pot TMIN TMIN TMAX TMAX TMAX RAIN|----Water----|---Nitrogen--|-Phosphorus-|
                         Span   Max   Min  Mean   Rad  [day]    CO2   Rain  Trans     ET   <    <    >    >    >    >   Photo         Photo         Photo
                         days    邂    邂    邂 MJ/m2     hr    ppm     mm     mm     mm  0邂  2邂 30邂 32邂 34邂  0mm  synth Growth  synth Growth  synth Growth
----------------------------------------------------------------------------------------------------------------------------------------------------------------
 Emergence-End Juvenile    16  31.6  18.7  25.2  17.4   0.00  388.5   21.9   32.3   77.4    0    0   12    6    0    4  0.000  0.000  0.002  0.005  0.000  0.000
 End Juvenil-Floral Init    4  33.0  19.9  26.4  18.1   0.00  388.5    1.1    9.0   19.5    0    0    4    2    1    1  0.000  0.000  0.000  0.001  0.000  0.000
 Floral Init-End Lf Grow   34  33.3  19.1  26.2  17.9   0.00  388.8   18.8   64.6  156.8    0    0   30   25   13    5  0.513  0.633  0.000  0.000  0.000  0.000
 End Lf Grth-Beg Grn Fil    9  33.2  20.2  26.7  14.7   0.00  389.0    3.4    9.6   35.2    0    0    8    7    2    2  0.890  0.928  0.000  0.000  0.000  0.000
 Grain Filling Phase       46  33.0  20.3  26.6  16.5  11.15  389.1  133.0   84.6  211.3    0    0   41   31   13   17  0.419  0.461  0.000  0.000  0.000  0.000


 Planting to Harvest      118  32.7  19.6  26.2  16.9   4.93  388.9  214.4  227.5  539.3    0    0   99   73   29   32  0.379  0.433  0.000  0.001  0.000  0.000
----------------------------------------------------------------------------------------------------------------------------------------------------------------


*Resource Productivity
 Growing season length: 118 days 

 Precipitation during growing season       214.4 mm[rain]
   Dry Matter Productivity                  1.86 kg[DM]/m3[rain]          =   18.6 kg[DM]/ha per mm[rain]
   Yield Productivity                       0.44 kg[grain yield]/m3[rain] =    4.4 kg[yield]/ha per mm[rain]

 Evapotranspiration during growing season  227.5 mm[ET]
   Dry Matter Productivity                  1.76 kg[DM]/m3[ET]            =   17.6 kg[DM]/ha per mm[ET]
   Yield Productivity                       0.42 kg[grain yield]/m3[ET]   =    4.2 kg[yield]/ha per mm[ET]

 Transpiration during growing season        91.4 mm[EP]
   Dry Matter Productivity                  4.37 kg[DM]/m3[EP]            =   43.7 kg[DM]/ha per mm[EP]
   Yield Productivity                       1.03 kg[grain yield]/m3[EP]   =   10.3 kg[yield]/ha per mm[EP]

 N applied during growing season            161. kg[N applied]/ha
   Dry Matter Productivity                  24.8 kg[DM]/kg[N applied]
   Yield Productivity                        5.9 kg[yield]/kg[N applied]

 N uptake during growing season               84 kg[N uptake]/ha
   Dry Matter Productivity                  47.5 kg[DM]/kg[N uptake]
   Yield Productivity                       11.2 kg[yield]/kg[N uptake]

--------------------------------------------------------------------------------------------------------------

                     Maize YIELD :      945 kg/ha    [Dry weight] 

**************************************************************************************************************
