*SIMULATION OVERVIEW FILE

*DSSAT Cropping System Model Ver. 4.6.1.000 -release      OCT 24, 2017; 10:26:38
                                                                                
*RUN   1        : P04/02                    MZCER046 ANBU1982    1              
 MODEL          : MZCER046 - Maize                                              
 EXPERIMENT     : ANBU1982 MZ  Analisis a침os de bajo rendimiento Buga          
 DATA PATH      : C:\DSSAT46\maize\                                             
 TREATMENT  1   : P04/02                    MZCER046                            
                                                                                
                                                                                
 CROP           : Maize            CULTIVAR : DK234            ECOTYPE :IB0001  
 STARTING DATE  : MAR  3 1982                                                   
 PLANTING DATE  : APR  2 1982        PLANTS/m2 :  6.2     ROW SPACING :  80.cm  
 WEATHER        : CUNI   1982                                                   
 SOIL           : CCBUGA2017     TEXTURE : CL    -   Suelo Buga MADR Fase I     
 SOIL INITIAL C : DEPTH: 90cm EXTR. H2O: 83.9mm  NO3:  0.0kg/ha  NH4:  0.0kg/ha 
 WATER BALANCE  : RAINFED                                                       
 IRRIGATION     : NOT IRRIGATED                                                 
 NITROGEN BAL.  : SOIL-N & N-UPTAKE SIMULATION; NO N-FIXATION                   
 N-FERTILIZER   :      161 kg/ha IN     5 APPLICATIONS                          
 RESIDUE/MANURE : INITIAL :     0 kg/ha ;       0 kg/ha IN     0 APPLICATIONS   
 ENVIRONM. OPT. : DAYL=    0.00  SRAD=    0.00  TMAX=    0.00  TMIN=    0.00    
                  RAIN=    0.00  CO2 =    0.00  DEW =    0.00  WIND=    0.00    
 SIMULATION OPT : WATER   :Y  NITROGEN:Y  N-FIX:N  PHOSPH :N  PESTS  :N         
                  PHOTO   :C  ET      :R  INFIL:S  HYDROL :R  SOM    :G         
                  CO2 341ppm  NSWIT   :1  EVAP :S  SOIL   :2  STEMP  :D         
 MANAGEMENT OPT : PLANTING:R  IRRIG   :N  FERT :D  RESIDUE:R  HARVEST:M         
                  WEATHER :M  TILLAGE :N                                        
                                                                                
*SUMMARY OF SOIL AND GENETIC INPUT PARAMETERS                                   
                                                                                
   SOIL LOWER UPPER   SAT  EXTR  INIT   ROOT   BULK     pH    NO3    NH4    ORG 
  DEPTH LIMIT LIMIT    SW    SW    SW   DIST   DENS                          C  
   cm   cm3/cm3    cm3/cm3    cm3/cm3         g/cm3         ugN/g  ugN/g     %  
------------------------------------------------------------------------------- 
  0-  5 0.215 0.331 0.341 0.116 0.331   1.00   1.68   6.70   0.00   0.00   0.75 
  5- 15 0.215 0.331 0.341 0.116 0.331   1.00   1.68   6.70   0.00   0.00   0.75 
 15- 25 0.215 0.331 0.341 0.116 0.331   1.00   1.68   6.70   0.00   0.00   0.75 
 25- 35 0.181 0.291 0.364 0.110 0.291   0.50   1.61   7.20   0.00   0.00   0.53 
 35- 45 0.181 0.291 0.364 0.110 0.291   0.50   1.61   7.20   0.00   0.00   0.53 
 45- 67 0.096 0.169 0.404 0.073 0.169   0.27   1.51   7.00   0.00   0.00   0.05 
 67- 90 0.096 0.169 0.404 0.073 0.169   0.27   1.51   7.00   0.00   0.00   0.05 
                                                                                
TOT- 90  13.3  21.7  34.0   8.4  21.7  <--cm   -  kg/ha-->    0.0    0.0  51964 
SOIL ALBEDO    : 0.09      EVAPORATION LIMIT : 6.00         MIN. FACTOR  : 1.00 
RUNOFF CURVE # :76.00      DRAINAGE RATE     : 0.60         FERT. FACTOR : 1.00 
                                                                                
 Maize      CULTIVAR :CI0002-DK234              ECOTYPE :IB0001                 
 P1     : 300.00  P2     : 0.4000  P5     :1075.00                              
 G2     : 890.00  G3     :  7.750  PHINT  : 40.000                              


*SIMULATED CROP AND SOIL STATUS AT MAIN DEVELOPMENT STAGES

 RUN NO.     1     P04/02                  

        CROP GROWTH     BIOMASS         LEAF   CROP N     STRESS      STRESS                                           
   DATE  AGE STAGE        kg/ha    LAI   NUM  kg/ha  %   H2O  Nitr Phos1 Phos2  RSTG                                   
 ------  --- ----------   -----  -----  ----  ---  ---  ----  ----  ----  ----  ----                                   
  3 MAR    0 Start Sim        0   0.00   0.0    0  0.0  0.00  0.00  0.00  0.00     7
  2 APR    0 Sowing           0   0.00   0.0    0  0.0  0.00  0.00  0.00  0.00     8
  3 APR    1 Germinate        0   0.00   0.0    0  0.0  0.00  0.00  0.00  0.00     9
  8 APR    6 Emergence       25   0.00   2.1    1  4.4  0.00  0.01  0.00  0.00     1
 25 APR   23 End Juveni     234   0.45  10.1    8  3.3  0.01  0.00  0.00  0.00     2
  2 MAY   30 Floral Ini     716   1.11  13.0   26  3.6  0.00  0.00  0.00  0.00     3
 10 JUN   69 75% Silkin    8017   4.26  26.7  163  2.0  0.00  0.01  0.00  0.00     4
 20 JUN   79 Beg Gr Fil   10334   4.04  26.7  163  1.6  0.05  0.00  0.00  0.00     5
  9 AUG  129 End Gr Fil   14079   0.67  26.7  172  1.2  0.78  0.00  0.00  0.00     6
 12 AUG  132 Maturity     14079   0.67  26.7  172  1.2  0.96  0.00  0.00  0.00    10
 12 AUG  132 Harvest      14079   0.67  26.7  172  1.2  0.00  0.00  0.00  0.00    10


*MAIN GROWTH AND DEVELOPMENT VARIABLES

@     VARIABLE                                         SIMULATED     MEASURED
      --------                                         ---------     --------
      Anthesis day (dap)                                      69          -99
      Physiological maturity day (dap)                       132          -99
      Yield at harvest maturity (kg [dm]/ha)                5205          -99
      Number at maturity (no/m2)                            2988          -99
      Unit wt at maturity (g [dm]/unit)                   0.1742          -99
      Number at maturity (no/unit)                         482.0          -99
      Tops weight at maturity (kg [dm]/ha)                 14079          -99
      By-product produced (stalk) at maturity (kg[dm]/ha    8949          -99
      Leaf area index, maximum                              4.35          -99
      Harvest index at maturity                            0.370          -99
      Grain N at maturity (kg/ha)                             95          -99
      Tops N at maturity (kg/ha)                             172          -99
      Stem N at maturity (kg/ha)                              78          -99
      Grain N at maturity (%)                                1.8          -99
      Tops weight at anthesis (kg [dm]/ha)                  7704          -99
      Tops N at anthesis (kg/ha)                             160          -99
      Leaf number per stem at maturity                     26.68          -99
      Emergence day (dap)                                      6          -99


*ENVIRONMENTAL AND STRESS FACTORS

 |-----Development Phase------|--------------------------------------Environment--------------------------------------|-----------------Stress-----------------|
                              |---------------Average--------------|-----Cumulative-----|--------Count of days--------|          (0=Min, 1=Max Stress)         |
                         Time  Temp  Temp  Temp Solar Photop                Evapo    Pot TMIN TMIN TMAX TMAX TMAX RAIN|----Water----|---Nitrogen--|-Phosphorus-|
                         Span   Max   Min  Mean   Rad  [day]    CO2   Rain  Trans     ET   <    <    >    >    >    >   Photo         Photo         Photo
                         days    邂    邂    邂 MJ/m2     hr    ppm     mm     mm     mm  0邂  2邂 30邂 32邂 34邂  0mm  synth Growth  synth Growth  synth Growth
----------------------------------------------------------------------------------------------------------------------------------------------------------------
 Emergence-End Juvenile    17  29.8  19.6  24.7  14.3  22.48  340.9   50.6   46.2   67.3    0    0   10    0    0   11  0.000  0.008  0.002  0.006  0.000  0.000
 End Juvenil-Floral Init    7  29.9  19.5  24.7  13.7  24.00  340.9   64.8   17.6   25.3    0    0    5    1    0    5  0.000  0.000  0.000  0.000  0.000  0.000
 Floral Init-End Lf Grow   39  29.7  19.6  24.6  14.5  24.00  340.9  181.1  135.8  136.0    0    0   13    0    0   22  0.000  0.000  0.004  0.011  0.000  0.000
 End Lf Grth-Beg Grn Fil   10  30.5  18.9  24.7  16.7  24.00  341.0   24.6   38.6   39.5    0    0    6    0    0    4  0.022  0.048  0.000  0.000  0.000  0.000
 Grain Filling Phase       50  31.8  18.3  25.0  18.5  24.00  341.1   38.8   75.3  228.7    0    0   43   19    4   11  0.704  0.760  0.000  0.000  0.000  0.000


 Planting to Harvest      132  30.6  19.0  24.8  16.2  23.48  341.0  394.2  336.1  533.9    0    0   81   23    6   58  0.290  0.314  0.002  0.004  0.000  0.000
----------------------------------------------------------------------------------------------------------------------------------------------------------------


*Resource Productivity
 Growing season length: 132 days 

 Precipitation during growing season       394.2 mm[rain]
   Dry Matter Productivity                  3.57 kg[DM]/m3[rain]          =   35.7 kg[DM]/ha per mm[rain]
   Yield Productivity                       1.32 kg[grain yield]/m3[rain] =   13.2 kg[yield]/ha per mm[rain]

 Evapotranspiration during growing season  336.1 mm[ET]
   Dry Matter Productivity                  4.19 kg[DM]/m3[ET]            =   41.9 kg[DM]/ha per mm[ET]
   Yield Productivity                       1.55 kg[grain yield]/m3[ET]   =   15.5 kg[yield]/ha per mm[ET]

 Transpiration during growing season       210.5 mm[EP]
   Dry Matter Productivity                  6.69 kg[DM]/m3[EP]            =   66.9 kg[DM]/ha per mm[EP]
   Yield Productivity                       2.47 kg[grain yield]/m3[EP]   =   24.7 kg[yield]/ha per mm[EP]

 N applied during growing season            161. kg[N applied]/ha
   Dry Matter Productivity                  87.4 kg[DM]/kg[N applied]
   Yield Productivity                       32.3 kg[yield]/kg[N applied]

 N uptake during growing season              186 kg[N uptake]/ha
   Dry Matter Productivity                  75.7 kg[DM]/kg[N uptake]
   Yield Productivity                       28.0 kg[yield]/kg[N uptake]

--------------------------------------------------------------------------------------------------------------

                     Maize YIELD :     5205 kg/ha    [Dry weight] 

**************************************************************************************************************

*DSSAT Cropping System Model Ver. 4.6.1.000 -release      OCT 24, 2017; 10:26:39
                                                                                
*RUN   2        : P04/07                    MZCER046 ANBU1982    2              
 MODEL          : MZCER046 - Maize                                              
 EXPERIMENT     : ANBU1982 MZ  Analisis a침os de bajo rendimiento Buga          
 DATA PATH      : C:\DSSAT46\maize\                                             
 TREATMENT  2   : P04/07                    MZCER046                            
                                                                                
                                                                                
 CROP           : Maize            CULTIVAR : DK234            ECOTYPE :IB0001  
 STARTING DATE  : MAR  8 1982                                                   
 PLANTING DATE  : APR  7 1982        PLANTS/m2 :  6.2     ROW SPACING :  80.cm  
 WEATHER        : CUNI   1982                                                   
 SOIL           : CCBUGA2017     TEXTURE : CL    -   Suelo Buga MADR Fase I     
 SOIL INITIAL C : DEPTH: 90cm EXTR. H2O: 83.9mm  NO3:  0.0kg/ha  NH4:  0.0kg/ha 
 WATER BALANCE  : RAINFED                                                       
 IRRIGATION     : NOT IRRIGATED                                                 
 NITROGEN BAL.  : SOIL-N & N-UPTAKE SIMULATION; NO N-FIXATION                   
 N-FERTILIZER   :      161 kg/ha IN     5 APPLICATIONS                          
 RESIDUE/MANURE : INITIAL :     0 kg/ha ;       0 kg/ha IN     0 APPLICATIONS   
 ENVIRONM. OPT. : DAYL=    0.00  SRAD=    0.00  TMAX=    0.00  TMIN=    0.00    
                  RAIN=    0.00  CO2 =    0.00  DEW =    0.00  WIND=    0.00    
 SIMULATION OPT : WATER   :Y  NITROGEN:Y  N-FIX:N  PHOSPH :N  PESTS  :N         
                  PHOTO   :C  ET      :R  INFIL:S  HYDROL :R  SOM    :G         
                  CO2 341ppm  NSWIT   :1  EVAP :S  SOIL   :2  STEMP  :D         
 MANAGEMENT OPT : PLANTING:R  IRRIG   :N  FERT :D  RESIDUE:R  HARVEST:M         
                  WEATHER :M  TILLAGE :N                                        
                                                                                
*SUMMARY OF SOIL AND GENETIC INPUT PARAMETERS                                   
                                                                                
   SOIL LOWER UPPER   SAT  EXTR  INIT   ROOT   BULK     pH    NO3    NH4    ORG 
  DEPTH LIMIT LIMIT    SW    SW    SW   DIST   DENS                          C  
   cm   cm3/cm3    cm3/cm3    cm3/cm3         g/cm3         ugN/g  ugN/g     %  
------------------------------------------------------------------------------- 
  0-  5 0.215 0.331 0.341 0.116 0.331   1.00   1.68   6.70   0.00   0.00   0.75 
  5- 15 0.215 0.331 0.341 0.116 0.331   1.00   1.68   6.70   0.00   0.00   0.75 
 15- 25 0.215 0.331 0.341 0.116 0.331   1.00   1.68   6.70   0.00   0.00   0.75 
 25- 35 0.181 0.291 0.364 0.110 0.291   0.50   1.61   7.20   0.00   0.00   0.53 
 35- 45 0.181 0.291 0.364 0.110 0.291   0.50   1.61   7.20   0.00   0.00   0.53 
 45- 67 0.096 0.169 0.404 0.073 0.169   0.27   1.51   7.00   0.00   0.00   0.05 
 67- 90 0.096 0.169 0.404 0.073 0.169   0.27   1.51   7.00   0.00   0.00   0.05 
                                                                                
TOT- 90  13.3  21.7  34.0   8.4  21.7  <--cm   -  kg/ha-->    0.0    0.0  51964 
SOIL ALBEDO    : 0.09      EVAPORATION LIMIT : 6.00         MIN. FACTOR  : 1.00 
RUNOFF CURVE # :76.00      DRAINAGE RATE     : 0.60         FERT. FACTOR : 1.00 
                                                                                
 Maize      CULTIVAR :CI0002-DK234              ECOTYPE :IB0001                 
 P1     : 300.00  P2     : 0.4000  P5     :1075.00                              
 G2     : 890.00  G3     :  7.750  PHINT  : 40.000                              


*SIMULATED CROP AND SOIL STATUS AT MAIN DEVELOPMENT STAGES

 RUN NO.     2     P04/07                  

        CROP GROWTH     BIOMASS         LEAF   CROP N     STRESS      STRESS                                           
   DATE  AGE STAGE        kg/ha    LAI   NUM  kg/ha  %   H2O  Nitr Phos1 Phos2  RSTG                                   
 ------  --- ----------   -----  -----  ----  ---  ---  ----  ----  ----  ----  ----                                   
  8 MAR    0 Start Sim        0   0.00   0.0    0  0.0  0.00  0.00  0.00  0.00     7
  7 APR    0 Sowing           0   0.00   0.0    0  0.0  0.00  0.00  0.00  0.00     8
  8 APR    1 Germinate        0   0.00   0.0    0  0.0  0.00  0.00  0.00  0.00     9
 13 APR    6 Emergence       25   0.00   2.1    1  4.4  0.00  0.01  0.00  0.00     1
 30 APR   23 End Juveni     262   0.49  10.1    9  3.3  0.01  0.00  0.00  0.00     2
  8 MAY   31 Floral Ini     728   1.13  13.5   26  3.6  0.00  0.00  0.00  0.00     3
 17 JUN   71 75% Silkin    8614   4.54  28.0  171  2.0  0.00  0.01  0.00  0.00     4
 28 JUN   82 Beg Gr Fil   10362   3.87  28.0  171  1.7  0.36  0.00  0.00  0.00     5
 16 AUG  131 End Gr Fil   13027   0.56  28.0  171  1.3  0.81  0.00  0.00  0.00     6
 19 AUG  134 Maturity     13027   0.56  28.0  171  1.3  0.00  0.00  0.00  0.00    10
 19 AUG  134 Harvest      13027   0.56  28.0  171  1.3  0.00  0.00  0.00  0.00    10


*MAIN GROWTH AND DEVELOPMENT VARIABLES

@     VARIABLE                                         SIMULATED     MEASURED
      --------                                         ---------     --------
      Anthesis day (dap)                                      71          -99
      Physiological maturity day (dap)                       134          -99
      Yield at harvest maturity (kg [dm]/ha)                4321          -99
      Number at maturity (no/m2)                            2375          -99
      Unit wt at maturity (g [dm]/unit)                   0.1819          -99
      Number at maturity (no/unit)                         383.1          -99
      Tops weight at maturity (kg [dm]/ha)                 13027          -99
      By-product produced (stalk) at maturity (kg[dm]/ha    8787          -99
      Leaf area index, maximum                              4.57          -99
      Harvest index at maturity                            0.332          -99
      Grain N at maturity (kg/ha)                             80          -99
      Tops N at maturity (kg/ha)                             171          -99
      Stem N at maturity (kg/ha)                              91          -99
      Grain N at maturity (%)                                1.9          -99
      Tops weight at anthesis (kg [dm]/ha)                  8392          -99
      Tops N at anthesis (kg/ha)                             170          -99
      Leaf number per stem at maturity                     28.00          -99
      Emergence day (dap)                                      6          -99


*ENVIRONMENTAL AND STRESS FACTORS

 |-----Development Phase------|--------------------------------------Environment--------------------------------------|-----------------Stress-----------------|
                              |---------------Average--------------|-----Cumulative-----|--------Count of days--------|          (0=Min, 1=Max Stress)         |
                         Time  Temp  Temp  Temp Solar Photop                Evapo    Pot TMIN TMIN TMAX TMAX TMAX RAIN|----Water----|---Nitrogen--|-Phosphorus-|
                         Span   Max   Min  Mean   Rad  [day]    CO2   Rain  Trans     ET   <    <    >    >    >    >   Photo         Photo         Photo
                         days    邂    邂    邂 MJ/m2     hr    ppm     mm     mm     mm  0邂  2邂 30邂 32邂 34邂  0mm  synth Growth  synth Growth  synth Growth
----------------------------------------------------------------------------------------------------------------------------------------------------------------
 Emergence-End Juvenile    17  29.9  19.6  24.8  14.3  23.81  340.9   25.7   35.2   67.1    0    0   11    1    0   10  0.000  0.007  0.002  0.005  0.000  0.000
 End Juvenil-Floral Init    8  30.4  19.7  25.1  13.3  24.00  340.9   71.7   26.9   27.9    0    0    5    0    0    6  0.000  0.000  0.000  0.000  0.000  0.000
 Floral Init-End Lf Grow   40  29.7  19.4  24.6  15.2  24.00  341.0  181.6  145.4  145.6    0    0   14    0    0   21  0.000  0.000  0.004  0.011  0.000  0.000
 End Lf Grth-Beg Grn Fil   11  30.2  18.6  24.4  15.8  24.00  341.1   10.7   32.5   40.8    0    0    5    0    0    3  0.168  0.283  0.000  0.000  0.000  0.000
 Grain Filling Phase       49  32.5  18.2  25.3  19.1  24.00  341.1   52.3   63.0  233.9    0    0   47   26    9   10  0.785  0.830  0.000  0.000  0.000  0.000


 Planting to Harvest      134  30.9  18.9  24.9  16.5  23.76  341.0  390.5  338.8  557.0    0    0   88   30   10   56  0.301  0.328  0.002  0.004  0.000  0.000
----------------------------------------------------------------------------------------------------------------------------------------------------------------


*Resource Productivity
 Growing season length: 134 days 

 Precipitation during growing season       390.5 mm[rain]
   Dry Matter Productivity                  3.34 kg[DM]/m3[rain]          =   33.4 kg[DM]/ha per mm[rain]
   Yield Productivity                       1.11 kg[grain yield]/m3[rain] =   11.1 kg[yield]/ha per mm[rain]

 Evapotranspiration during growing season  338.8 mm[ET]
   Dry Matter Productivity                  3.85 kg[DM]/m3[ET]            =   38.5 kg[DM]/ha per mm[ET]
   Yield Productivity                       1.28 kg[grain yield]/m3[ET]   =   12.8 kg[yield]/ha per mm[ET]

 Transpiration during growing season       211.5 mm[EP]
   Dry Matter Productivity                  6.16 kg[DM]/m3[EP]            =   61.6 kg[DM]/ha per mm[EP]
   Yield Productivity                       2.04 kg[grain yield]/m3[EP]   =   20.4 kg[yield]/ha per mm[EP]

 N applied during growing season            161. kg[N applied]/ha
   Dry Matter Productivity                  80.9 kg[DM]/kg[N applied]
   Yield Productivity                       26.8 kg[yield]/kg[N applied]

 N uptake during growing season              186 kg[N uptake]/ha
   Dry Matter Productivity                  70.0 kg[DM]/kg[N uptake]
   Yield Productivity                       23.2 kg[yield]/kg[N uptake]

--------------------------------------------------------------------------------------------------------------

                     Maize YIELD :     4321 kg/ha    [Dry weight] 

**************************************************************************************************************

*DSSAT Cropping System Model Ver. 4.6.1.000 -release      OCT 24, 2017; 10:26:39
                                                                                
*RUN   3        : P04/12                    MZCER046 ANBU1982    3              
 MODEL          : MZCER046 - Maize                                              
 EXPERIMENT     : ANBU1982 MZ  Analisis a침os de bajo rendimiento Buga          
 DATA PATH      : C:\DSSAT46\maize\                                             
 TREATMENT  3   : P04/12                    MZCER046                            
                                                                                
                                                                                
 CROP           : Maize            CULTIVAR : DK234            ECOTYPE :IB0001  
 STARTING DATE  : MAR 13 1982                                                   
 PLANTING DATE  : APR 12 1982        PLANTS/m2 :  6.2     ROW SPACING :  80.cm  
 WEATHER        : CUNI   1982                                                   
 SOIL           : CCBUGA2017     TEXTURE : CL    -   Suelo Buga MADR Fase I     
 SOIL INITIAL C : DEPTH: 90cm EXTR. H2O: 83.9mm  NO3:  0.0kg/ha  NH4:  0.0kg/ha 
 WATER BALANCE  : RAINFED                                                       
 IRRIGATION     : NOT IRRIGATED                                                 
 NITROGEN BAL.  : SOIL-N & N-UPTAKE SIMULATION; NO N-FIXATION                   
 N-FERTILIZER   :      161 kg/ha IN     5 APPLICATIONS                          
 RESIDUE/MANURE : INITIAL :     0 kg/ha ;       0 kg/ha IN     0 APPLICATIONS   
 ENVIRONM. OPT. : DAYL=    0.00  SRAD=    0.00  TMAX=    0.00  TMIN=    0.00    
                  RAIN=    0.00  CO2 =    0.00  DEW =    0.00  WIND=    0.00    
 SIMULATION OPT : WATER   :Y  NITROGEN:Y  N-FIX:N  PHOSPH :N  PESTS  :N         
                  PHOTO   :C  ET      :R  INFIL:S  HYDROL :R  SOM    :G         
                  CO2 341ppm  NSWIT   :1  EVAP :S  SOIL   :2  STEMP  :D         
 MANAGEMENT OPT : PLANTING:R  IRRIG   :N  FERT :D  RESIDUE:R  HARVEST:M         
                  WEATHER :M  TILLAGE :N                                        
                                                                                
*SUMMARY OF SOIL AND GENETIC INPUT PARAMETERS                                   
                                                                                
   SOIL LOWER UPPER   SAT  EXTR  INIT   ROOT   BULK     pH    NO3    NH4    ORG 
  DEPTH LIMIT LIMIT    SW    SW    SW   DIST   DENS                          C  
   cm   cm3/cm3    cm3/cm3    cm3/cm3         g/cm3         ugN/g  ugN/g     %  
------------------------------------------------------------------------------- 
  0-  5 0.215 0.331 0.341 0.116 0.331   1.00   1.68   6.70   0.00   0.00   0.75 
  5- 15 0.215 0.331 0.341 0.116 0.331   1.00   1.68   6.70   0.00   0.00   0.75 
 15- 25 0.215 0.331 0.341 0.116 0.331   1.00   1.68   6.70   0.00   0.00   0.75 
 25- 35 0.181 0.291 0.364 0.110 0.291   0.50   1.61   7.20   0.00   0.00   0.53 
 35- 45 0.181 0.291 0.364 0.110 0.291   0.50   1.61   7.20   0.00   0.00   0.53 
 45- 67 0.096 0.169 0.404 0.073 0.169   0.27   1.51   7.00   0.00   0.00   0.05 
 67- 90 0.096 0.169 0.404 0.073 0.169   0.27   1.51   7.00   0.00   0.00   0.05 
                                                                                
TOT- 90  13.3  21.7  34.0   8.4  21.7  <--cm   -  kg/ha-->    0.0    0.0  51964 
SOIL ALBEDO    : 0.09      EVAPORATION LIMIT : 6.00         MIN. FACTOR  : 1.00 
RUNOFF CURVE # :76.00      DRAINAGE RATE     : 0.60         FERT. FACTOR : 1.00 
                                                                                
 Maize      CULTIVAR :CI0002-DK234              ECOTYPE :IB0001                 
 P1     : 300.00  P2     : 0.4000  P5     :1075.00                              
 G2     : 890.00  G3     :  7.750  PHINT  : 40.000                              


*SIMULATED CROP AND SOIL STATUS AT MAIN DEVELOPMENT STAGES

 RUN NO.     3     P04/12                  

        CROP GROWTH     BIOMASS         LEAF   CROP N     STRESS      STRESS                                           
   DATE  AGE STAGE        kg/ha    LAI   NUM  kg/ha  %   H2O  Nitr Phos1 Phos2  RSTG                                   
 ------  --- ----------   -----  -----  ----  ---  ---  ----  ----  ----  ----  ----                                   
 13 MAR    0 Start Sim        0   0.00   0.0    0  0.0  0.00  0.00  0.00  0.00     7
 12 APR    0 Sowing           0   0.00   0.0    0  0.0  0.00  0.00  0.00  0.00     8
 13 APR    1 Germinate        0   0.00   0.0    0  0.0  0.00  0.00  0.00  0.00     9
 18 APR    6 Emergence       25   0.00   2.1    1  4.4  0.00  0.01  0.00  0.00     1
  5 MAY   23 End Juveni     230   0.44  10.1    8  3.5  0.00  0.00  0.00  0.00     2
 13 MAY   31 Floral Ini     748   1.15  13.5   27  3.6  0.00  0.00  0.00  0.00     3
 23 JUN   72 75% Silkin    8629   4.46  28.0  171  2.0  0.04  0.01  0.00  0.00     4
  3 JUL   82 Beg Gr Fil    9097   3.17  28.0  171  1.9  0.78  0.00  0.00  0.00     5
 21 AUG  131 End Gr Fil   11407   0.58  28.0  171  1.5  0.73  0.00  0.00  0.00     6
 23 AUG  133 Maturity     11407   0.58  28.0  171  1.5  0.85  0.00  0.00  0.00    10
 23 AUG  133 Harvest      11407   0.58  28.0  171  1.5  0.00  0.00  0.00  0.00    10


*MAIN GROWTH AND DEVELOPMENT VARIABLES

@     VARIABLE                                         SIMULATED     MEASURED
      --------                                         ---------     --------
      Anthesis day (dap)                                      72          -99
      Physiological maturity day (dap)                       133          -99
      Yield at harvest maturity (kg [dm]/ha)                3359          -99
      Number at maturity (no/m2)                            1428          -99
      Unit wt at maturity (g [dm]/unit)                   0.2352          -99
      Number at maturity (no/unit)                         230.4          -99
      Tops weight at maturity (kg [dm]/ha)                 11407          -99
      By-product produced (stalk) at maturity (kg[dm]/ha    8129          -99
      Leaf area index, maximum                              4.48          -99
      Harvest index at maturity                            0.294          -99
      Grain N at maturity (kg/ha)                             62          -99
      Tops N at maturity (kg/ha)                             171          -99
      Stem N at maturity (kg/ha)                             110          -99
      Grain N at maturity (%)                                1.8          -99
      Tops weight at anthesis (kg [dm]/ha)                  8395          -99
      Tops N at anthesis (kg/ha)                             170          -99
      Leaf number per stem at maturity                     27.98          -99
      Emergence day (dap)                                      6          -99


*ENVIRONMENTAL AND STRESS FACTORS

 |-----Development Phase------|--------------------------------------Environment--------------------------------------|-----------------Stress-----------------|
                              |---------------Average--------------|-----Cumulative-----|--------Count of days--------|          (0=Min, 1=Max Stress)         |
                         Time  Temp  Temp  Temp Solar Photop                Evapo    Pot TMIN TMIN TMAX TMAX TMAX RAIN|----Water----|---Nitrogen--|-Phosphorus-|
                         Span   Max   Min  Mean   Rad  [day]    CO2   Rain  Trans     ET   <    <    >    >    >    >   Photo         Photo         Photo
                         days    邂    邂    邂 MJ/m2     hr    ppm     mm     mm     mm  0邂  2邂 30邂 32邂 34邂  0mm  synth Growth  synth Growth  synth Growth
----------------------------------------------------------------------------------------------------------------------------------------------------------------
 Emergence-End Juvenile    17  30.1  19.8  24.9  13.5  24.00  340.9   83.0   37.0   63.9    0    0   11    1    0   13  0.000  0.000  0.002  0.005  0.000  0.000
 End Juvenil-Floral Init    8  29.6  19.8  24.7  13.1  24.00  340.9   17.4   25.2   27.4    0    0    3    0    0    3  0.000  0.000  0.000  0.001  0.000  0.000
 Floral Init-End Lf Grow   41  29.8  19.2  24.5  15.3  24.00  341.0  179.9  146.6  150.2    0    0   14    0    0   22  0.011  0.036  0.005  0.013  0.000  0.000
 End Lf Grth-Beg Grn Fil   10  31.6  18.6  25.1  18.3  24.00  341.1    0.0   18.0   43.7    0    0    8    3    1    0  0.600  0.734  0.000  0.000  0.000  0.000
 Grain Filling Phase       49  32.6  18.3  25.4  19.3  24.00  341.1   65.5   76.8  239.3    0    0   47   28   10   11  0.690  0.732  0.000  0.000  0.000  0.000


 Planting to Harvest      133  31.0  18.9  25.0  16.7  23.95  341.0  355.5  322.7  562.5    0    0   89   34   12   52  0.313  0.348  0.002  0.005  0.000  0.000
----------------------------------------------------------------------------------------------------------------------------------------------------------------


*Resource Productivity
 Growing season length: 133 days 

 Precipitation during growing season       355.5 mm[rain]
   Dry Matter Productivity                  3.21 kg[DM]/m3[rain]          =   32.1 kg[DM]/ha per mm[rain]
   Yield Productivity                       0.94 kg[grain yield]/m3[rain] =    9.4 kg[yield]/ha per mm[rain]

 Evapotranspiration during growing season  322.7 mm[ET]
   Dry Matter Productivity                  3.54 kg[DM]/m3[ET]            =   35.4 kg[DM]/ha per mm[ET]
   Yield Productivity                       1.04 kg[grain yield]/m3[ET]   =   10.4 kg[yield]/ha per mm[ET]

 Transpiration during growing season       197.9 mm[EP]
   Dry Matter Productivity                  5.77 kg[DM]/m3[EP]            =   57.7 kg[DM]/ha per mm[EP]
   Yield Productivity                       1.70 kg[grain yield]/m3[EP]   =   17.0 kg[yield]/ha per mm[EP]

 N applied during growing season            161. kg[N applied]/ha
   Dry Matter Productivity                  70.9 kg[DM]/kg[N applied]
   Yield Productivity                       20.9 kg[yield]/kg[N applied]

 N uptake during growing season              186 kg[N uptake]/ha
   Dry Matter Productivity                  61.3 kg[DM]/kg[N uptake]
   Yield Productivity                       18.1 kg[yield]/kg[N uptake]

--------------------------------------------------------------------------------------------------------------

                     Maize YIELD :     3359 kg/ha    [Dry weight] 

**************************************************************************************************************

*DSSAT Cropping System Model Ver. 4.6.1.000 -release      OCT 24, 2017; 10:26:39
                                                                                
*RUN   4        : P04/17                    MZCER046 ANBU1982    4              
 MODEL          : MZCER046 - Maize                                              
 EXPERIMENT     : ANBU1982 MZ  Analisis a침os de bajo rendimiento Buga          
 DATA PATH      : C:\DSSAT46\maize\                                             
 TREATMENT  4   : P04/17                    MZCER046                            
                                                                                
                                                                                
 CROP           : Maize            CULTIVAR : DK234            ECOTYPE :IB0001  
 STARTING DATE  : MAR 18 1982                                                   
 PLANTING DATE  : APR 17 1982        PLANTS/m2 :  6.2     ROW SPACING :  80.cm  
 WEATHER        : CUNI   1982                                                   
 SOIL           : CCBUGA2017     TEXTURE : CL    -   Suelo Buga MADR Fase I     
 SOIL INITIAL C : DEPTH: 90cm EXTR. H2O: 83.9mm  NO3:  0.0kg/ha  NH4:  0.0kg/ha 
 WATER BALANCE  : RAINFED                                                       
 IRRIGATION     : NOT IRRIGATED                                                 
 NITROGEN BAL.  : SOIL-N & N-UPTAKE SIMULATION; NO N-FIXATION                   
 N-FERTILIZER   :      161 kg/ha IN     5 APPLICATIONS                          
 RESIDUE/MANURE : INITIAL :     0 kg/ha ;       0 kg/ha IN     0 APPLICATIONS   
 ENVIRONM. OPT. : DAYL=    0.00  SRAD=    0.00  TMAX=    0.00  TMIN=    0.00    
                  RAIN=    0.00  CO2 =    0.00  DEW =    0.00  WIND=    0.00    
 SIMULATION OPT : WATER   :Y  NITROGEN:Y  N-FIX:N  PHOSPH :N  PESTS  :N         
                  PHOTO   :C  ET      :R  INFIL:S  HYDROL :R  SOM    :G         
                  CO2 341ppm  NSWIT   :1  EVAP :S  SOIL   :2  STEMP  :D         
 MANAGEMENT OPT : PLANTING:R  IRRIG   :N  FERT :D  RESIDUE:R  HARVEST:M         
                  WEATHER :M  TILLAGE :N                                        
                                                                                
*SUMMARY OF SOIL AND GENETIC INPUT PARAMETERS                                   
                                                                                
   SOIL LOWER UPPER   SAT  EXTR  INIT   ROOT   BULK     pH    NO3    NH4    ORG 
  DEPTH LIMIT LIMIT    SW    SW    SW   DIST   DENS                          C  
   cm   cm3/cm3    cm3/cm3    cm3/cm3         g/cm3         ugN/g  ugN/g     %  
------------------------------------------------------------------------------- 
  0-  5 0.215 0.331 0.341 0.116 0.331   1.00   1.68   6.70   0.00   0.00   0.75 
  5- 15 0.215 0.331 0.341 0.116 0.331   1.00   1.68   6.70   0.00   0.00   0.75 
 15- 25 0.215 0.331 0.341 0.116 0.331   1.00   1.68   6.70   0.00   0.00   0.75 
 25- 35 0.181 0.291 0.364 0.110 0.291   0.50   1.61   7.20   0.00   0.00   0.53 
 35- 45 0.181 0.291 0.364 0.110 0.291   0.50   1.61   7.20   0.00   0.00   0.53 
 45- 67 0.096 0.169 0.404 0.073 0.169   0.27   1.51   7.00   0.00   0.00   0.05 
 67- 90 0.096 0.169 0.404 0.073 0.169   0.27   1.51   7.00   0.00   0.00   0.05 
                                                                                
TOT- 90  13.3  21.7  34.0   8.4  21.7  <--cm   -  kg/ha-->    0.0    0.0  51964 
SOIL ALBEDO    : 0.09      EVAPORATION LIMIT : 6.00         MIN. FACTOR  : 1.00 
RUNOFF CURVE # :76.00      DRAINAGE RATE     : 0.60         FERT. FACTOR : 1.00 
                                                                                
 Maize      CULTIVAR :CI0002-DK234              ECOTYPE :IB0001                 
 P1     : 300.00  P2     : 0.4000  P5     :1075.00                              
 G2     : 890.00  G3     :  7.750  PHINT  : 40.000                              


*SIMULATED CROP AND SOIL STATUS AT MAIN DEVELOPMENT STAGES

 RUN NO.     4     P04/17                  

        CROP GROWTH     BIOMASS         LEAF   CROP N     STRESS      STRESS                                           
   DATE  AGE STAGE        kg/ha    LAI   NUM  kg/ha  %   H2O  Nitr Phos1 Phos2  RSTG                                   
 ------  --- ----------   -----  -----  ----  ---  ---  ----  ----  ----  ----  ----                                   
 18 MAR    0 Start Sim        0   0.00   0.0    0  0.0  0.00  0.00  0.00  0.00     7
 17 APR    0 Sowing           0   0.00   0.0    0  0.0  0.00  0.00  0.00  0.00     8
 18 APR    1 Germinate        0   0.00   0.0    0  0.0  0.00  0.00  0.00  0.00     9
 23 APR    6 Emergence       25   0.00   2.1    1  4.4  0.00  0.01  0.00  0.00     1
 10 MAY   23 End Juveni     179   0.36  10.1    6  3.5  0.00  0.00  0.00  0.00     2
 18 MAY   31 Floral Ini     666   1.05  13.5   24  3.6  0.01  0.00  0.00  0.00     3
 28 JUN   72 75% Silkin    7688   3.62  27.9  167  2.2  0.14  0.02  0.00  0.00     4
  8 JUL   82 Beg Gr Fil    8603   2.84  27.9  167  1.9  0.55  0.00  0.00  0.00     5
 25 AUG  130 End Gr Fil   10645   0.46  27.9  167  1.6  0.80  0.00  0.00  0.00     6
 28 AUG  133 Maturity     10645   0.46  27.9  167  1.6  0.91  0.00  0.00  0.00    10
 28 AUG  133 Harvest      10645   0.46  27.9  167  1.6  0.00  0.00  0.00  0.00    10


*MAIN GROWTH AND DEVELOPMENT VARIABLES

@     VARIABLE                                         SIMULATED     MEASURED
      --------                                         ---------     --------
      Anthesis day (dap)                                      72          -99
      Physiological maturity day (dap)                       133          -99
      Yield at harvest maturity (kg [dm]/ha)                3230          -99
      Number at maturity (no/m2)                            1607          -99
      Unit wt at maturity (g [dm]/unit)                   0.2010          -99
      Number at maturity (no/unit)                         259.2          -99
      Tops weight at maturity (kg [dm]/ha)                 10645          -99
      By-product produced (stalk) at maturity (kg[dm]/ha    7493          -99
      Leaf area index, maximum                              4.14          -99
      Harvest index at maturity                            0.303          -99
      Grain N at maturity (kg/ha)                             60          -99
      Tops N at maturity (kg/ha)                             167          -99
      Stem N at maturity (kg/ha)                             107          -99
      Grain N at maturity (%)                                1.9          -99
      Tops weight at anthesis (kg [dm]/ha)                  7622          -99
      Tops N at anthesis (kg/ha)                             166          -99
      Leaf number per stem at maturity                     27.88          -99
      Emergence day (dap)                                      6          -99


*ENVIRONMENTAL AND STRESS FACTORS

 |-----Development Phase------|--------------------------------------Environment--------------------------------------|-----------------Stress-----------------|
                              |---------------Average--------------|-----Cumulative-----|--------Count of days--------|          (0=Min, 1=Max Stress)         |
                         Time  Temp  Temp  Temp Solar Photop                Evapo    Pot TMIN TMIN TMAX TMAX TMAX RAIN|----Water----|---Nitrogen--|-Phosphorus-|
                         Span   Max   Min  Mean   Rad  [day]    CO2   Rain  Trans     ET   <    <    >    >    >    >   Photo         Photo         Photo
                         days    邂    邂    邂 MJ/m2     hr    ppm     mm     mm     mm  0邂  2邂 30邂 32邂 34邂  0mm  synth Growth  synth Growth  synth Growth
----------------------------------------------------------------------------------------------------------------------------------------------------------------
 Emergence-End Juvenile    17  30.0  19.8  24.9  13.0  24.00  340.9   87.9   41.6   61.5    0    0    9    1    0   11  0.000  0.000  0.002  0.005  0.000  0.000
 End Juvenil-Floral Init    8  30.0  19.5  24.8  15.4  24.00  340.9   57.0   22.7   32.6    0    0    4    0    0    5  0.000  0.005  0.000  0.001  0.000  0.000
 Floral Init-End Lf Grow   41  29.8  19.2  24.5  15.6  24.00  341.0  127.1  140.4  153.6    0    0   15    0    0   18  0.078  0.124  0.007  0.017  0.000  0.000
 End Lf Grth-Beg Grn Fil   10  31.9  18.4  25.2  18.4  24.00  341.1   25.6   23.0   44.2    0    0   10    3    1    2  0.534  0.589  0.000  0.000  0.000  0.000
 Grain Filling Phase       48  32.9  18.3  25.6  19.6  24.00  341.1   40.2   62.2  242.9    0    0   46   32   12   10  0.744  0.788  0.000  0.000  0.000  0.000


 Planting to Harvest      133  31.2  18.9  25.1  16.9  24.00  341.0  346.9  304.9  574.7    0    0   90   39   16   51  0.352  0.388  0.002  0.006  0.000  0.000
----------------------------------------------------------------------------------------------------------------------------------------------------------------


*Resource Productivity
 Growing season length: 133 days 

 Precipitation during growing season       346.9 mm[rain]
   Dry Matter Productivity                  3.07 kg[DM]/m3[rain]          =   30.7 kg[DM]/ha per mm[rain]
   Yield Productivity                       0.93 kg[grain yield]/m3[rain] =    9.3 kg[yield]/ha per mm[rain]

 Evapotranspiration during growing season  304.9 mm[ET]
   Dry Matter Productivity                  3.49 kg[DM]/m3[ET]            =   34.9 kg[DM]/ha per mm[ET]
   Yield Productivity                       1.06 kg[grain yield]/m3[ET]   =   10.6 kg[yield]/ha per mm[ET]

 Transpiration during growing season       173.1 mm[EP]
   Dry Matter Productivity                  6.15 kg[DM]/m3[EP]            =   61.5 kg[DM]/ha per mm[EP]
   Yield Productivity                       1.87 kg[grain yield]/m3[EP]   =   18.7 kg[yield]/ha per mm[EP]

 N applied during growing season            161. kg[N applied]/ha
   Dry Matter Productivity                  66.1 kg[DM]/kg[N applied]
   Yield Productivity                       20.1 kg[yield]/kg[N applied]

 N uptake during growing season              180 kg[N uptake]/ha
   Dry Matter Productivity                  59.1 kg[DM]/kg[N uptake]
   Yield Productivity                       17.9 kg[yield]/kg[N uptake]

--------------------------------------------------------------------------------------------------------------

                     Maize YIELD :     3230 kg/ha    [Dry weight] 

**************************************************************************************************************

*DSSAT Cropping System Model Ver. 4.6.1.000 -release      OCT 24, 2017; 10:26:39
                                                                                
*RUN   5        : P04/22                    MZCER046 ANBU1982    5              
 MODEL          : MZCER046 - Maize                                              
 EXPERIMENT     : ANBU1982 MZ  Analisis a침os de bajo rendimiento Buga          
 DATA PATH      : C:\DSSAT46\maize\                                             
 TREATMENT  5   : P04/22                    MZCER046                            
                                                                                
                                                                                
 CROP           : Maize            CULTIVAR : DK234            ECOTYPE :IB0001  
 STARTING DATE  : MAR 23 1982                                                   
 PLANTING DATE  : APR 22 1982        PLANTS/m2 :  6.2     ROW SPACING :  80.cm  
 WEATHER        : CUNI   1982                                                   
 SOIL           : CCBUGA2017     TEXTURE : CL    -   Suelo Buga MADR Fase I     
 SOIL INITIAL C : DEPTH: 90cm EXTR. H2O: 83.9mm  NO3:  0.0kg/ha  NH4:  0.0kg/ha 
 WATER BALANCE  : RAINFED                                                       
 IRRIGATION     : NOT IRRIGATED                                                 
 NITROGEN BAL.  : SOIL-N & N-UPTAKE SIMULATION; NO N-FIXATION                   
 N-FERTILIZER   :      161 kg/ha IN     5 APPLICATIONS                          
 RESIDUE/MANURE : INITIAL :     0 kg/ha ;       0 kg/ha IN     0 APPLICATIONS   
 ENVIRONM. OPT. : DAYL=    0.00  SRAD=    0.00  TMAX=    0.00  TMIN=    0.00    
                  RAIN=    0.00  CO2 =    0.00  DEW =    0.00  WIND=    0.00    
 SIMULATION OPT : WATER   :Y  NITROGEN:Y  N-FIX:N  PHOSPH :N  PESTS  :N         
                  PHOTO   :C  ET      :R  INFIL:S  HYDROL :R  SOM    :G         
                  CO2 341ppm  NSWIT   :1  EVAP :S  SOIL   :2  STEMP  :D         
 MANAGEMENT OPT : PLANTING:R  IRRIG   :N  FERT :D  RESIDUE:R  HARVEST:M         
                  WEATHER :M  TILLAGE :N                                        
                                                                                
*SUMMARY OF SOIL AND GENETIC INPUT PARAMETERS                                   
                                                                                
   SOIL LOWER UPPER   SAT  EXTR  INIT   ROOT   BULK     pH    NO3    NH4    ORG 
  DEPTH LIMIT LIMIT    SW    SW    SW   DIST   DENS                          C  
   cm   cm3/cm3    cm3/cm3    cm3/cm3         g/cm3         ugN/g  ugN/g     %  
------------------------------------------------------------------------------- 
  0-  5 0.215 0.331 0.341 0.116 0.331   1.00   1.68   6.70   0.00   0.00   0.75 
  5- 15 0.215 0.331 0.341 0.116 0.331   1.00   1.68   6.70   0.00   0.00   0.75 
 15- 25 0.215 0.331 0.341 0.116 0.331   1.00   1.68   6.70   0.00   0.00   0.75 
 25- 35 0.181 0.291 0.364 0.110 0.291   0.50   1.61   7.20   0.00   0.00   0.53 
 35- 45 0.181 0.291 0.364 0.110 0.291   0.50   1.61   7.20   0.00   0.00   0.53 
 45- 67 0.096 0.169 0.404 0.073 0.169   0.27   1.51   7.00   0.00   0.00   0.05 
 67- 90 0.096 0.169 0.404 0.073 0.169   0.27   1.51   7.00   0.00   0.00   0.05 
                                                                                
TOT- 90  13.3  21.7  34.0   8.4  21.7  <--cm   -  kg/ha-->    0.0    0.0  51964 
SOIL ALBEDO    : 0.09      EVAPORATION LIMIT : 6.00         MIN. FACTOR  : 1.00 
RUNOFF CURVE # :76.00      DRAINAGE RATE     : 0.60         FERT. FACTOR : 1.00 
                                                                                
 Maize      CULTIVAR :CI0002-DK234              ECOTYPE :IB0001                 
 P1     : 300.00  P2     : 0.4000  P5     :1075.00                              
 G2     : 890.00  G3     :  7.750  PHINT  : 40.000                              


*SIMULATED CROP AND SOIL STATUS AT MAIN DEVELOPMENT STAGES

 RUN NO.     5     P04/22                  

        CROP GROWTH     BIOMASS         LEAF   CROP N     STRESS      STRESS                                           
   DATE  AGE STAGE        kg/ha    LAI   NUM  kg/ha  %   H2O  Nitr Phos1 Phos2  RSTG                                   
 ------  --- ----------   -----  -----  ----  ---  ---  ----  ----  ----  ----  ----                                   
 23 MAR    0 Start Sim        0   0.00   0.0    0  0.0  0.00  0.00  0.00  0.00     7
 22 APR    0 Sowing           0   0.00   0.0    0  0.0  0.00  0.00  0.00  0.00     8
 23 APR    1 Germinate        0   0.00   0.0    0  0.0  0.00  0.00  0.00  0.00     9
 28 APR    6 Emergence       25   0.00   2.0    1  4.4  0.00  0.01  0.00  0.00     1
 15 MAY   23 End Juveni     185   0.37  10.0    6  3.4  0.00  0.00  0.00  0.00     2
 23 MAY   31 Floral Ini     542   0.89  13.3   20  3.6  0.00  0.00  0.00  0.00     3
  2 JUL   71 75% Silkin    6999   3.00  27.4  155  2.2  0.24  0.03  0.00  0.00     4
 12 JUL   81 Beg Gr Fil    8184   2.47  27.4  155  1.9  0.46  0.00  0.00  0.00     5
 29 AUG  129 End Gr Fil    9739   0.37  27.4  155  1.6  0.82  0.00  0.00  0.00     6
  1 SEP  132 Maturity      9739   0.37  27.4  155  1.6  0.32  0.00  0.00  0.00    10
  1 SEP  132 Harvest       9739   0.37  27.4  155  1.6  0.00  0.00  0.00  0.00    10


*MAIN GROWTH AND DEVELOPMENT VARIABLES

@     VARIABLE                                         SIMULATED     MEASURED
      --------                                         ---------     --------
      Anthesis day (dap)                                      71          -99
      Physiological maturity day (dap)                       132          -99
      Yield at harvest maturity (kg [dm]/ha)                2838          -99
      Number at maturity (no/m2)                            1777          -99
      Unit wt at maturity (g [dm]/unit)                   0.1597          -99
      Number at maturity (no/unit)                         286.7          -99
      Tops weight at maturity (kg [dm]/ha)                  9739          -99
      By-product produced (stalk) at maturity (kg[dm]/ha    6972          -99
      Leaf area index, maximum                              3.83          -99
      Harvest index at maturity                            0.291          -99
      Grain N at maturity (kg/ha)                             53          -99
      Tops N at maturity (kg/ha)                             155          -99
      Stem N at maturity (kg/ha)                             103          -99
      Grain N at maturity (%)                                1.9          -99
      Tops weight at anthesis (kg [dm]/ha)                  6958          -99
      Tops N at anthesis (kg/ha)                             155          -99
      Leaf number per stem at maturity                     27.40          -99
      Emergence day (dap)                                      6          -99


*ENVIRONMENTAL AND STRESS FACTORS

 |-----Development Phase------|--------------------------------------Environment--------------------------------------|-----------------Stress-----------------|
                              |---------------Average--------------|-----Cumulative-----|--------Count of days--------|          (0=Min, 1=Max Stress)         |
                         Time  Temp  Temp  Temp Solar Photop                Evapo    Pot TMIN TMIN TMAX TMAX TMAX RAIN|----Water----|---Nitrogen--|-Phosphorus-|
                         Span   Max   Min  Mean   Rad  [day]    CO2   Rain  Trans     ET   <    <    >    >    >    >   Photo         Photo         Photo
                         days    邂    邂    邂 MJ/m2     hr    ppm     mm     mm     mm  0邂  2邂 30邂 32邂 34邂  0mm  synth Growth  synth Growth  synth Growth
----------------------------------------------------------------------------------------------------------------------------------------------------------------
 Emergence-End Juvenile    17  29.7  19.7  24.7  13.0  24.00  340.9   90.0   45.1   61.3    0    0    8    0    0   11  0.000  0.000  0.002  0.006  0.000  0.000
 End Juvenil-Floral Init    8  29.0  19.4  24.2  14.5  24.00  341.0  110.8   30.5   30.5    0    0    1    0    0    7  0.000  0.000  0.000  0.001  0.000  0.000
 Floral Init-End Lf Grow   40  30.3  19.0  24.7  16.2  24.00  341.0   67.8  132.0  156.7    0    0   19    3    1   13  0.151  0.216  0.013  0.032  0.000  0.000
 End Lf Grth-Beg Grn Fil   10  31.4  18.5  25.0  18.4  24.00  341.1   30.3   27.0   44.3    0    0   10    1    0    3  0.458  0.539  0.000  0.000  0.000  0.000
 Grain Filling Phase       48  33.1  18.4  25.8  19.9  24.00  341.1   35.5   55.1  249.4    0    0   46   35   16    9  0.768  0.804  0.000  0.000  0.000  0.000


 Planting to Harvest      132  31.4  18.9  25.1  17.2  23.95  341.0  349.1  301.4  582.7    0    0   92   42   18   48  0.373  0.413  0.004  0.010  0.000  0.000
----------------------------------------------------------------------------------------------------------------------------------------------------------------


*Resource Productivity
 Growing season length: 132 days 

 Precipitation during growing season       349.1 mm[rain]
   Dry Matter Productivity                  2.79 kg[DM]/m3[rain]          =   27.9 kg[DM]/ha per mm[rain]
   Yield Productivity                       0.81 kg[grain yield]/m3[rain] =    8.1 kg[yield]/ha per mm[rain]

 Evapotranspiration during growing season  301.4 mm[ET]
   Dry Matter Productivity                  3.23 kg[DM]/m3[ET]            =   32.3 kg[DM]/ha per mm[ET]
   Yield Productivity                       0.94 kg[grain yield]/m3[ET]   =    9.4 kg[yield]/ha per mm[ET]

 Transpiration during growing season       157.4 mm[EP]
   Dry Matter Productivity                  6.19 kg[DM]/m3[EP]            =   61.9 kg[DM]/ha per mm[EP]
   Yield Productivity                       1.80 kg[grain yield]/m3[EP]   =   18.0 kg[yield]/ha per mm[EP]

 N applied during growing season            161. kg[N applied]/ha
   Dry Matter Productivity                  60.5 kg[DM]/kg[N applied]
   Yield Productivity                       17.6 kg[yield]/kg[N applied]

 N uptake during growing season              168 kg[N uptake]/ha
   Dry Matter Productivity                  58.0 kg[DM]/kg[N uptake]
   Yield Productivity                       16.9 kg[yield]/kg[N uptake]

--------------------------------------------------------------------------------------------------------------

                     Maize YIELD :     2838 kg/ha    [Dry weight] 

**************************************************************************************************************

*DSSAT Cropping System Model Ver. 4.6.1.000 -release      OCT 24, 2017; 10:26:39
                                                                                
*RUN   6        : P04/27                    MZCER046 ANBU1982    6              
 MODEL          : MZCER046 - Maize                                              
 EXPERIMENT     : ANBU1982 MZ  Analisis a침os de bajo rendimiento Buga          
 DATA PATH      : C:\DSSAT46\maize\                                             
 TREATMENT  6   : P04/27                    MZCER046                            
                                                                                
                                                                                
 CROP           : Maize            CULTIVAR : DK234            ECOTYPE :IB0001  
 STARTING DATE  : MAR 28 1982                                                   
 PLANTING DATE  : APR 27 1982        PLANTS/m2 :  6.2     ROW SPACING :  80.cm  
 WEATHER        : CUNI   1982                                                   
 SOIL           : CCBUGA2017     TEXTURE : CL    -   Suelo Buga MADR Fase I     
 SOIL INITIAL C : DEPTH: 90cm EXTR. H2O: 83.9mm  NO3:  0.0kg/ha  NH4:  0.0kg/ha 
 WATER BALANCE  : RAINFED                                                       
 IRRIGATION     : NOT IRRIGATED                                                 
 NITROGEN BAL.  : SOIL-N & N-UPTAKE SIMULATION; NO N-FIXATION                   
 N-FERTILIZER   :      161 kg/ha IN     5 APPLICATIONS                          
 RESIDUE/MANURE : INITIAL :     0 kg/ha ;       0 kg/ha IN     0 APPLICATIONS   
 ENVIRONM. OPT. : DAYL=    0.00  SRAD=    0.00  TMAX=    0.00  TMIN=    0.00    
                  RAIN=    0.00  CO2 =    0.00  DEW =    0.00  WIND=    0.00    
 SIMULATION OPT : WATER   :Y  NITROGEN:Y  N-FIX:N  PHOSPH :N  PESTS  :N         
                  PHOTO   :C  ET      :R  INFIL:S  HYDROL :R  SOM    :G         
                  CO2 341ppm  NSWIT   :1  EVAP :S  SOIL   :2  STEMP  :D         
 MANAGEMENT OPT : PLANTING:R  IRRIG   :N  FERT :D  RESIDUE:R  HARVEST:M         
                  WEATHER :M  TILLAGE :N                                        
                                                                                
*SUMMARY OF SOIL AND GENETIC INPUT PARAMETERS                                   
                                                                                
   SOIL LOWER UPPER   SAT  EXTR  INIT   ROOT   BULK     pH    NO3    NH4    ORG 
  DEPTH LIMIT LIMIT    SW    SW    SW   DIST   DENS                          C  
   cm   cm3/cm3    cm3/cm3    cm3/cm3         g/cm3         ugN/g  ugN/g     %  
------------------------------------------------------------------------------- 
  0-  5 0.215 0.331 0.341 0.116 0.331   1.00   1.68   6.70   0.00   0.00   0.75 
  5- 15 0.215 0.331 0.341 0.116 0.331   1.00   1.68   6.70   0.00   0.00   0.75 
 15- 25 0.215 0.331 0.341 0.116 0.331   1.00   1.68   6.70   0.00   0.00   0.75 
 25- 35 0.181 0.291 0.364 0.110 0.291   0.50   1.61   7.20   0.00   0.00   0.53 
 35- 45 0.181 0.291 0.364 0.110 0.291   0.50   1.61   7.20   0.00   0.00   0.53 
 45- 67 0.096 0.169 0.404 0.073 0.169   0.27   1.51   7.00   0.00   0.00   0.05 
 67- 90 0.096 0.169 0.404 0.073 0.169   0.27   1.51   7.00   0.00   0.00   0.05 
                                                                                
TOT- 90  13.3  21.7  34.0   8.4  21.7  <--cm   -  kg/ha-->    0.0    0.0  51964 
SOIL ALBEDO    : 0.09      EVAPORATION LIMIT : 6.00         MIN. FACTOR  : 1.00 
RUNOFF CURVE # :76.00      DRAINAGE RATE     : 0.60         FERT. FACTOR : 1.00 
                                                                                
 Maize      CULTIVAR :CI0002-DK234              ECOTYPE :IB0001                 
 P1     : 300.00  P2     : 0.4000  P5     :1075.00                              
 G2     : 890.00  G3     :  7.750  PHINT  : 40.000                              


*SIMULATED CROP AND SOIL STATUS AT MAIN DEVELOPMENT STAGES

 RUN NO.     6     P04/27                  

        CROP GROWTH     BIOMASS         LEAF   CROP N     STRESS      STRESS                                           
   DATE  AGE STAGE        kg/ha    LAI   NUM  kg/ha  %   H2O  Nitr Phos1 Phos2  RSTG                                   
 ------  --- ----------   -----  -----  ----  ---  ---  ----  ----  ----  ----  ----                                   
 28 MAR    0 Start Sim        0   0.00   0.0    0  0.0  0.00  0.00  0.00  0.00     7
 27 APR    0 Sowing           0   0.00   0.0    0  0.0  0.00  0.00  0.00  0.00     8
 28 APR    1 Germinate        0   0.00   0.0    0  0.0  0.00  0.00  0.00  0.00     9
  3 MAY    6 Emergence       25   0.00   2.2    1  4.4  0.00  0.01  0.00  0.00     1
 20 MAY   23 End Juveni     185   0.37  10.1    7  3.5  0.01  0.00  0.00  0.00     2
 28 MAY   31 Floral Ini     606   0.97  13.3   22  3.6  0.00  0.00  0.00  0.00     3
  7 JUL   71 75% Silkin    6835   2.82  27.5  140  2.0  0.30  0.06  0.00  0.00     4
 17 JUL   81 Beg Gr Fil    7336   2.04  27.5  140  1.9  0.72  0.00  0.00  0.00     5
  2 SEP  128 End Gr Fil    8933   0.35  27.5  140  1.6  0.78  0.00  0.00  0.00     6
  5 SEP  131 Maturity      8933   0.35  27.5  140  1.6  0.96  0.00  0.00  0.00    10
  5 SEP  131 Harvest       8933   0.35  27.5  140  1.6  0.00  0.00  0.00  0.00    10


*MAIN GROWTH AND DEVELOPMENT VARIABLES

@     VARIABLE                                         SIMULATED     MEASURED
      --------                                         ---------     --------
      Anthesis day (dap)                                      71          -99
      Physiological maturity day (dap)                       131          -99
      Yield at harvest maturity (kg [dm]/ha)                2701          -99
      Number at maturity (no/m2)                            1440          -99
      Unit wt at maturity (g [dm]/unit)                   0.1875          -99
      Number at maturity (no/unit)                         232.3          -99
      Tops weight at maturity (kg [dm]/ha)                  8933          -99
      By-product produced (stalk) at maturity (kg[dm]/ha    6305          -99
      Leaf area index, maximum                              3.41          -99
      Harvest index at maturity                            0.302          -99
      Grain N at maturity (kg/ha)                             50          -99
      Tops N at maturity (kg/ha)                             140          -99
      Stem N at maturity (kg/ha)                              90          -99
      Grain N at maturity (%)                                1.9          -99
      Tops weight at anthesis (kg [dm]/ha)                  6583          -99
      Tops N at anthesis (kg/ha)                             140          -99
      Leaf number per stem at maturity                     27.54          -99
      Emergence day (dap)                                      6          -99


*ENVIRONMENTAL AND STRESS FACTORS

 |-----Development Phase------|--------------------------------------Environment--------------------------------------|-----------------Stress-----------------|
                              |---------------Average--------------|-----Cumulative-----|--------Count of days--------|          (0=Min, 1=Max Stress)         |
                         Time  Temp  Temp  Temp Solar Photop                Evapo    Pot TMIN TMIN TMAX TMAX TMAX RAIN|----Water----|---Nitrogen--|-Phosphorus-|
                         Span   Max   Min  Mean   Rad  [day]    CO2   Rain  Trans     ET   <    <    >    >    >    >   Photo         Photo         Photo
                         days    邂    邂    邂 MJ/m2     hr    ppm     mm     mm     mm  0邂  2邂 30邂 32邂 34邂  0mm  synth Growth  synth Growth  synth Growth
----------------------------------------------------------------------------------------------------------------------------------------------------------------
 Emergence-End Juvenile    17  29.9  19.7  24.8  13.9  24.00  340.9   91.0   52.9   65.6    0    0    7    0    0   11  0.000  0.006  0.002  0.005  0.000  0.000
 End Juvenil-Floral Init    8  28.7  19.5  24.1  15.0  24.00  341.0   63.7   31.5   31.5    0    0    0    0    0    6  0.000  0.000  0.000  0.001  0.000  0.000
 Floral Init-End Lf Grow   40  30.5  18.9  24.7  16.4  24.00  341.0   76.2  123.4  158.8    0    0   24    3    1   12  0.224  0.303  0.025  0.063  0.000  0.000
 End Lf Grth-Beg Grn Fil   10  31.8  18.4  25.1  18.7  24.00  341.1    5.0   22.9   45.4    0    0    9    4    0    2  0.553  0.636  0.000  0.000  0.000  0.000
 Grain Filling Phase       47  33.3  18.4  25.8  19.7  23.78  341.1   45.2   52.5  243.8    0    0   46   35   18    9  0.747  0.782  0.000  0.000  0.000  0.000


 Planting to Harvest      131  31.5  18.8  25.2  17.2  23.80  341.0  346.7  299.4  581.4    0    0   92   45   20   45  0.399  0.444  0.008  0.020  0.000  0.000
----------------------------------------------------------------------------------------------------------------------------------------------------------------


*Resource Productivity
 Growing season length: 131 days 

 Precipitation during growing season       346.7 mm[rain]
   Dry Matter Productivity                  2.58 kg[DM]/m3[rain]          =   25.8 kg[DM]/ha per mm[rain]
   Yield Productivity                       0.78 kg[grain yield]/m3[rain] =    7.8 kg[yield]/ha per mm[rain]

 Evapotranspiration during growing season  299.4 mm[ET]
   Dry Matter Productivity                  2.98 kg[DM]/m3[ET]            =   29.8 kg[DM]/ha per mm[ET]
   Yield Productivity                       0.90 kg[grain yield]/m3[ET]   =    9.0 kg[yield]/ha per mm[ET]

 Transpiration during growing season       144.1 mm[EP]
   Dry Matter Productivity                  6.20 kg[DM]/m3[EP]            =   62.0 kg[DM]/ha per mm[EP]
   Yield Productivity                       1.87 kg[grain yield]/m3[EP]   =   18.7 kg[yield]/ha per mm[EP]

 N applied during growing season            161. kg[N applied]/ha
   Dry Matter Productivity                  55.5 kg[DM]/kg[N applied]
   Yield Productivity                       16.8 kg[yield]/kg[N applied]

 N uptake during growing season              151 kg[N uptake]/ha
   Dry Matter Productivity                  59.2 kg[DM]/kg[N uptake]
   Yield Productivity                       17.9 kg[yield]/kg[N uptake]

--------------------------------------------------------------------------------------------------------------

                     Maize YIELD :     2701 kg/ha    [Dry weight] 

**************************************************************************************************************

*DSSAT Cropping System Model Ver. 4.6.1.000 -release      OCT 24, 2017; 10:26:39
                                                                                
*RUN   7        : P05/02                    MZCER046 ANBU1982    7              
 MODEL          : MZCER046 - Maize                                              
 EXPERIMENT     : ANBU1982 MZ  Analisis a침os de bajo rendimiento Buga          
 DATA PATH      : C:\DSSAT46\maize\                                             
 TREATMENT  7   : P05/02                    MZCER046                            
                                                                                
                                                                                
 CROP           : Maize            CULTIVAR : DK234            ECOTYPE :IB0001  
 STARTING DATE  : APR  2 1982                                                   
 PLANTING DATE  : MAY  2 1982        PLANTS/m2 :  6.2     ROW SPACING :  80.cm  
 WEATHER        : CUNI   1982                                                   
 SOIL           : CCBUGA2017     TEXTURE : CL    -   Suelo Buga MADR Fase I     
 SOIL INITIAL C : DEPTH: 90cm EXTR. H2O: 83.9mm  NO3:  0.0kg/ha  NH4:  0.0kg/ha 
 WATER BALANCE  : RAINFED                                                       
 IRRIGATION     : NOT IRRIGATED                                                 
 NITROGEN BAL.  : SOIL-N & N-UPTAKE SIMULATION; NO N-FIXATION                   
 N-FERTILIZER   :      161 kg/ha IN     5 APPLICATIONS                          
 RESIDUE/MANURE : INITIAL :     0 kg/ha ;       0 kg/ha IN     0 APPLICATIONS   
 ENVIRONM. OPT. : DAYL=    0.00  SRAD=    0.00  TMAX=    0.00  TMIN=    0.00    
                  RAIN=    0.00  CO2 =    0.00  DEW =    0.00  WIND=    0.00    
 SIMULATION OPT : WATER   :Y  NITROGEN:Y  N-FIX:N  PHOSPH :N  PESTS  :N         
                  PHOTO   :C  ET      :R  INFIL:S  HYDROL :R  SOM    :G         
                  CO2 341ppm  NSWIT   :1  EVAP :S  SOIL   :2  STEMP  :D         
 MANAGEMENT OPT : PLANTING:R  IRRIG   :N  FERT :D  RESIDUE:R  HARVEST:M         
                  WEATHER :M  TILLAGE :N                                        
                                                                                
*SUMMARY OF SOIL AND GENETIC INPUT PARAMETERS                                   
                                                                                
   SOIL LOWER UPPER   SAT  EXTR  INIT   ROOT   BULK     pH    NO3    NH4    ORG 
  DEPTH LIMIT LIMIT    SW    SW    SW   DIST   DENS                          C  
   cm   cm3/cm3    cm3/cm3    cm3/cm3         g/cm3         ugN/g  ugN/g     %  
------------------------------------------------------------------------------- 
  0-  5 0.215 0.331 0.341 0.116 0.331   1.00   1.68   6.70   0.00   0.00   0.75 
  5- 15 0.215 0.331 0.341 0.116 0.331   1.00   1.68   6.70   0.00   0.00   0.75 
 15- 25 0.215 0.331 0.341 0.116 0.331   1.00   1.68   6.70   0.00   0.00   0.75 
 25- 35 0.181 0.291 0.364 0.110 0.291   0.50   1.61   7.20   0.00   0.00   0.53 
 35- 45 0.181 0.291 0.364 0.110 0.291   0.50   1.61   7.20   0.00   0.00   0.53 
 45- 67 0.096 0.169 0.404 0.073 0.169   0.27   1.51   7.00   0.00   0.00   0.05 
 67- 90 0.096 0.169 0.404 0.073 0.169   0.27   1.51   7.00   0.00   0.00   0.05 
                                                                                
TOT- 90  13.3  21.7  34.0   8.4  21.7  <--cm   -  kg/ha-->    0.0    0.0  51964 
SOIL ALBEDO    : 0.09      EVAPORATION LIMIT : 6.00         MIN. FACTOR  : 1.00 
RUNOFF CURVE # :76.00      DRAINAGE RATE     : 0.60         FERT. FACTOR : 1.00 
                                                                                
 Maize      CULTIVAR :CI0002-DK234              ECOTYPE :IB0001                 
 P1     : 300.00  P2     : 0.4000  P5     :1075.00                              
 G2     : 890.00  G3     :  7.750  PHINT  : 40.000                              


*SIMULATED CROP AND SOIL STATUS AT MAIN DEVELOPMENT STAGES

 RUN NO.     7     P05/02                  

        CROP GROWTH     BIOMASS         LEAF   CROP N     STRESS      STRESS                                           
   DATE  AGE STAGE        kg/ha    LAI   NUM  kg/ha  %   H2O  Nitr Phos1 Phos2  RSTG                                   
 ------  --- ----------   -----  -----  ----  ---  ---  ----  ----  ----  ----  ----                                   
  2 APR    0 Start Sim        0   0.00   0.0    0  0.0  0.00  0.00  0.00  0.00     7
  2 MAY    0 Sowing           0   0.00   0.0    0  0.0  0.00  0.00  0.00  0.00     8
  3 MAY    1 Germinate        0   0.00   0.0    0  0.0  0.00  0.00  0.00  0.00     9
  8 MAY    6 Emergence       25   0.00   2.1    1  4.4  0.00  0.01  0.00  0.00     1
 25 MAY   23 End Juveni     187   0.37   9.9    6  3.3  0.00  0.00  0.00  0.00     2
  2 JUN   31 Floral Ini     704   1.10  13.3   25  3.6  0.00  0.00  0.00  0.00     3
 11 JUL   70 75% Silkin    5868   2.32  27.5  128  2.2  0.41  0.01  0.00  0.00     4
 21 JUL   80 Beg Gr Fil    5957   1.56  27.5  128  2.1  0.85  0.00  0.00  0.00     5
  7 SEP  128 End Gr Fil    7226   0.27  27.5  128  1.8  0.78  0.00  0.00  0.00     6
 10 SEP  131 Maturity      7226   0.27  27.5  128  1.8  0.94  0.00  0.00  0.00    10
 10 SEP  131 Harvest       7226   0.27  27.5  128  1.8  0.00  0.00  0.00  0.00    10


*MAIN GROWTH AND DEVELOPMENT VARIABLES

@     VARIABLE                                         SIMULATED     MEASURED
      --------                                         ---------     --------
      Anthesis day (dap)                                      70          -99
      Physiological maturity day (dap)                       131          -99
      Yield at harvest maturity (kg [dm]/ha)                1830          -99
      Number at maturity (no/m2)                             829          -99
      Unit wt at maturity (g [dm]/unit)                   0.2208          -99
      Number at maturity (no/unit)                         133.7          -99
      Tops weight at maturity (kg [dm]/ha)                  7226          -99
      By-product produced (stalk) at maturity (kg[dm]/ha    5464          -99
      Leaf area index, maximum                              3.17          -99
      Harvest index at maturity                            0.253          -99
      Grain N at maturity (kg/ha)                             34          -99
      Tops N at maturity (kg/ha)                             128          -99
      Stem N at maturity (kg/ha)                              94          -99
      Grain N at maturity (%)                                1.9          -99
      Tops weight at anthesis (kg [dm]/ha)                  5840          -99
      Tops N at anthesis (kg/ha)                             128          -99
      Leaf number per stem at maturity                     27.50          -99
      Emergence day (dap)                                      6          -99


*ENVIRONMENTAL AND STRESS FACTORS

 |-----Development Phase------|--------------------------------------Environment--------------------------------------|-----------------Stress-----------------|
                              |---------------Average--------------|-----Cumulative-----|--------Count of days--------|          (0=Min, 1=Max Stress)         |
                         Time  Temp  Temp  Temp Solar Photop                Evapo    Pot TMIN TMIN TMAX TMAX TMAX RAIN|----Water----|---Nitrogen--|-Phosphorus-|
                         Span   Max   Min  Mean   Rad  [day]    CO2   Rain  Trans     ET   <    <    >    >    >    >   Photo         Photo         Photo
                         days    邂    邂    邂 MJ/m2     hr    ppm     mm     mm     mm  0邂  2邂 30邂 32邂 34邂  0mm  synth Growth  synth Growth  synth Growth
----------------------------------------------------------------------------------------------------------------------------------------------------------------
 Emergence-End Juvenile    17  29.3  19.6  24.4  14.8  24.00  340.9  135.5   57.8   69.1    0    0    4    0    0   12  0.000  0.000  0.002  0.005  0.000  0.000
 End Juvenil-Floral Init    8  29.4  19.6  24.5  13.9  24.00  341.0   17.6   27.9   29.3    0    0    1    0    0    3  0.000  0.000  0.000  0.000  0.000  0.000
 Floral Init-End Lf Grow   39  30.8  18.8  24.8  16.9  24.00  341.0   64.8  112.5  159.9    0    0   27    4    1   11  0.300  0.387  0.004  0.010  0.000  0.000
 End Lf Grth-Beg Grn Fil   10  31.9  18.3  25.1  18.0  24.00  341.1    5.0   14.4   44.3    0    0    9    5    0    2  0.761  0.840  0.000  0.000  0.000  0.000
 Grain Filling Phase       48  33.5  18.4  26.0  19.7  23.20  341.2   45.2   53.7  252.9    0    0   47   38   21    9  0.735  0.775  0.000  0.000  0.000  0.000


 Planting to Harvest      131  31.7  18.8  25.2  17.5  23.54  341.1  304.9  289.1  594.2    0    0   94   50   24   42  0.438  0.485  0.002  0.004  0.000  0.000
----------------------------------------------------------------------------------------------------------------------------------------------------------------


*Resource Productivity
 Growing season length: 131 days 

 Precipitation during growing season       304.9 mm[rain]
   Dry Matter Productivity                  2.37 kg[DM]/m3[rain]          =   23.7 kg[DM]/ha per mm[rain]
   Yield Productivity                       0.60 kg[grain yield]/m3[rain] =    6.0 kg[yield]/ha per mm[rain]

 Evapotranspiration during growing season  289.1 mm[ET]
   Dry Matter Productivity                  2.50 kg[DM]/m3[ET]            =   25.0 kg[DM]/ha per mm[ET]
   Yield Productivity                       0.63 kg[grain yield]/m3[ET]   =    6.3 kg[yield]/ha per mm[ET]

 Transpiration during growing season       125.8 mm[EP]
   Dry Matter Productivity                  5.74 kg[DM]/m3[EP]            =   57.4 kg[DM]/ha per mm[EP]
   Yield Productivity                       1.45 kg[grain yield]/m3[EP]   =   14.5 kg[yield]/ha per mm[EP]

 N applied during growing season            161. kg[N applied]/ha
   Dry Matter Productivity                  44.9 kg[DM]/kg[N applied]
   Yield Productivity                       11.4 kg[yield]/kg[N applied]

 N uptake during growing season              140 kg[N uptake]/ha
   Dry Matter Productivity                  51.6 kg[DM]/kg[N uptake]
   Yield Productivity                       13.1 kg[yield]/kg[N uptake]

--------------------------------------------------------------------------------------------------------------

                     Maize YIELD :     1830 kg/ha    [Dry weight] 

**************************************************************************************************************

*DSSAT Cropping System Model Ver. 4.6.1.000 -release      OCT 24, 2017; 10:26:40
                                                                                
*RUN   8        : P05/07                    MZCER046 ANBU1982    8              
 MODEL          : MZCER046 - Maize                                              
 EXPERIMENT     : ANBU1982 MZ  Analisis a침os de bajo rendimiento Buga          
 DATA PATH      : C:\DSSAT46\maize\                                             
 TREATMENT  8   : P05/07                    MZCER046                            
                                                                                
                                                                                
 CROP           : Maize            CULTIVAR : DK234            ECOTYPE :IB0001  
 STARTING DATE  : APR  7 1982                                                   
 PLANTING DATE  : MAY  7 1982        PLANTS/m2 :  6.2     ROW SPACING :  80.cm  
 WEATHER        : CUNI   1982                                                   
 SOIL           : CCBUGA2017     TEXTURE : CL    -   Suelo Buga MADR Fase I     
 SOIL INITIAL C : DEPTH: 90cm EXTR. H2O: 83.9mm  NO3:  0.0kg/ha  NH4:  0.0kg/ha 
 WATER BALANCE  : RAINFED                                                       
 IRRIGATION     : NOT IRRIGATED                                                 
 NITROGEN BAL.  : SOIL-N & N-UPTAKE SIMULATION; NO N-FIXATION                   
 N-FERTILIZER   :      161 kg/ha IN     5 APPLICATIONS                          
 RESIDUE/MANURE : INITIAL :     0 kg/ha ;       0 kg/ha IN     0 APPLICATIONS   
 ENVIRONM. OPT. : DAYL=    0.00  SRAD=    0.00  TMAX=    0.00  TMIN=    0.00    
                  RAIN=    0.00  CO2 =    0.00  DEW =    0.00  WIND=    0.00    
 SIMULATION OPT : WATER   :Y  NITROGEN:Y  N-FIX:N  PHOSPH :N  PESTS  :N         
                  PHOTO   :C  ET      :R  INFIL:S  HYDROL :R  SOM    :G         
                  CO2 341ppm  NSWIT   :1  EVAP :S  SOIL   :2  STEMP  :D         
 MANAGEMENT OPT : PLANTING:R  IRRIG   :N  FERT :D  RESIDUE:R  HARVEST:M         
                  WEATHER :M  TILLAGE :N                                        
                                                                                
*SUMMARY OF SOIL AND GENETIC INPUT PARAMETERS                                   
                                                                                
   SOIL LOWER UPPER   SAT  EXTR  INIT   ROOT   BULK     pH    NO3    NH4    ORG 
  DEPTH LIMIT LIMIT    SW    SW    SW   DIST   DENS                          C  
   cm   cm3/cm3    cm3/cm3    cm3/cm3         g/cm3         ugN/g  ugN/g     %  
------------------------------------------------------------------------------- 
  0-  5 0.215 0.331 0.341 0.116 0.331   1.00   1.68   6.70   0.00   0.00   0.75 
  5- 15 0.215 0.331 0.341 0.116 0.331   1.00   1.68   6.70   0.00   0.00   0.75 
 15- 25 0.215 0.331 0.341 0.116 0.331   1.00   1.68   6.70   0.00   0.00   0.75 
 25- 35 0.181 0.291 0.364 0.110 0.291   0.50   1.61   7.20   0.00   0.00   0.53 
 35- 45 0.181 0.291 0.364 0.110 0.291   0.50   1.61   7.20   0.00   0.00   0.53 
 45- 67 0.096 0.169 0.404 0.073 0.169   0.27   1.51   7.00   0.00   0.00   0.05 
 67- 90 0.096 0.169 0.404 0.073 0.169   0.27   1.51   7.00   0.00   0.00   0.05 
                                                                                
TOT- 90  13.3  21.7  34.0   8.4  21.7  <--cm   -  kg/ha-->    0.0    0.0  51964 
SOIL ALBEDO    : 0.09      EVAPORATION LIMIT : 6.00         MIN. FACTOR  : 1.00 
RUNOFF CURVE # :76.00      DRAINAGE RATE     : 0.60         FERT. FACTOR : 1.00 
                                                                                
 Maize      CULTIVAR :CI0002-DK234              ECOTYPE :IB0001                 
 P1     : 300.00  P2     : 0.4000  P5     :1075.00                              
 G2     : 890.00  G3     :  7.750  PHINT  : 40.000                              


*SIMULATED CROP AND SOIL STATUS AT MAIN DEVELOPMENT STAGES

 RUN NO.     8     P05/07                  

        CROP GROWTH     BIOMASS         LEAF   CROP N     STRESS      STRESS                                           
   DATE  AGE STAGE        kg/ha    LAI   NUM  kg/ha  %   H2O  Nitr Phos1 Phos2  RSTG                                   
 ------  --- ----------   -----  -----  ----  ---  ---  ----  ----  ----  ----  ----                                   
  7 APR    0 Start Sim        0   0.00   0.0    0  0.0  0.00  0.00  0.00  0.00     7
  7 MAY    0 Sowing           0   0.00   0.0    0  0.0  0.00  0.00  0.00  0.00     8
  8 MAY    1 Germinate        0   0.00   0.0    0  0.0  0.00  0.00  0.00  0.00     9
 13 MAY    6 Emergence       25   0.00   2.2    1  4.4  0.00  0.01  0.00  0.00     1
 31 MAY   24 End Juveni     227   0.44  10.3    8  3.3  0.01  0.00  0.00  0.00     2
  8 JUN   32 Floral Ini     878   1.31  13.7   30  3.5  0.02  0.01  0.00  0.00     3
 18 JUL   72 75% Silkin    6118   2.32  28.4  142  2.3  0.43  0.02  0.00  0.00     4
 28 JUL   82 Beg Gr Fil    5876   1.46  28.4  142  2.4  0.94  0.00  0.00  0.00     5
 13 SEP  129 End Gr Fil    6900   0.27  28.4  142  2.1  0.72  0.00  0.00  0.00     6
 16 SEP  132 Maturity      6900   0.27  28.4  142  2.1  0.00  0.00  0.00  0.00    10
[...]
 NITROGEN BAL.  : SOIL-N & N-UPTAKE SIMULATION; NO N-FIXATION                   
 N-FERTILIZER   :      161 kg/ha IN     5 APPLICATIONS                          
 RESIDUE/MANURE : INITIAL :     0 kg/ha ;       0 kg/ha IN     0 APPLICATIONS   
 ENVIRONM. OPT. : DAYL=    0.00  SRAD=    0.00  TMAX=    0.00  TMIN=    0.00    
                  RAIN=    0.00  CO2 =    0.00  DEW =    0.00  WIND=    0.00    
 SIMULATION OPT : WATER   :Y  NITROGEN:Y  N-FIX:N  PHOSPH :N  PESTS  :N         
                  PHOTO   :C  ET      :R  INFIL:S  HYDROL :R  SOM    :G         
                  CO2 341ppm  NSWIT   :1  EVAP :S  SOIL   :2  STEMP  :D         
 MANAGEMENT OPT : PLANTING:R  IRRIG   :N  FERT :D  RESIDUE:R  HARVEST:M         
                  WEATHER :M  TILLAGE :N                                        
                                                                                
*SUMMARY OF SOIL AND GENETIC INPUT PARAMETERS                                   
                                                                                
   SOIL LOWER UPPER   SAT  EXTR  INIT   ROOT   BULK     pH    NO3    NH4    ORG 
  DEPTH LIMIT LIMIT    SW    SW    SW   DIST   DENS                          C  
   cm   cm3/cm3    cm3/cm3    cm3/cm3         g/cm3         ugN/g  ugN/g     %  
------------------------------------------------------------------------------- 
  0-  5 0.215 0.331 0.341 0.116 0.331   1.00   1.68   6.70   0.00   0.00   0.75 
  5- 15 0.215 0.331 0.341 0.116 0.331   1.00   1.68   6.70   0.00   0.00   0.75 
 15- 25 0.215 0.331 0.341 0.116 0.331   1.00   1.68   6.70   0.00   0.00   0.75 
 25- 35 0.181 0.291 0.364 0.110 0.291   0.50   1.61   7.20   0.00   0.00   0.53 
 35- 45 0.181 0.291 0.364 0.110 0.291   0.50   1.61   7.20   0.00   0.00   0.53 
 45- 67 0.096 0.169 0.404 0.073 0.169   0.27   1.51   7.00   0.00   0.00   0.05 
 67- 90 0.096 0.169 0.404 0.073 0.169   0.27   1.51   7.00   0.00   0.00   0.05 
                                                                                
TOT- 90  13.3  21.7  34.0   8.4  21.7  <--cm   -  kg/ha-->    0.0    0.0  51964 
SOIL ALBEDO    : 0.09      EVAPORATION LIMIT : 6.00         MIN. FACTOR  : 1.00 
RUNOFF CURVE # :76.00      DRAINAGE RATE     : 0.60         FERT. FACTOR : 1.00 
                                                                                
 Maize      CULTIVAR :CI0002-DK234              ECOTYPE :IB0001                 
 P1     : 300.00  P2     : 0.4000  P5     :1075.00                              
 G2     : 890.00  G3     :  7.750  PHINT  : 40.000                              


*SIMULATED CROP AND SOIL STATUS AT MAIN DEVELOPMENT STAGES

 RUN NO.    35     P12/14                  

        CROP GROWTH     BIOMASS         LEAF   CROP N     STRESS      STRESS                                           
   DATE  AGE STAGE        kg/ha    LAI   NUM  kg/ha  %   H2O  Nitr Phos1 Phos2  RSTG                                   
 ------  --- ----------   -----  -----  ----  ---  ---  ----  ----  ----  ----  ----                                   
 14 NOV    0 Start Sim        0   0.00   0.0    0  0.0  0.00  0.00  0.00  0.00     7
 14 DEC    0 Sowing           0   0.00   0.0    0  0.0  0.00  0.00  0.00  0.00     8
 15 DEC    1 Germinate        0   0.00   0.0    0  0.0  0.00  0.00  0.00  0.00     9
 20 DEC    6 Emergence       25   0.00   2.2    1  4.4  0.00  0.01  0.00  0.00     1
  6 JAN   23 End Juveni     306   0.56  10.2    9  2.9  0.00  0.00  0.00  0.00     2
 10 JAN   27 Floral Ini     563   0.88  12.1   11  1.9  0.00  0.30  0.00  0.00     3
 11 FEB   59 75% Silkin    2028   0.69  25.1   47  2.3  0.55  0.67  0.00  0.00     4
 20 FEB   68 Beg Gr Fil    2036   0.48  25.1   47  2.3  0.87  0.00  0.00  0.00     5
  6 APR  113 End Gr Fil    2799   0.14  25.1   47  1.7  0.60  0.00  0.00  0.00     6
  9 APR  116 Maturity      2799   0.14  25.1   47  1.7  0.00  0.00  0.00  0.00    10
  9 APR  116 Harvest       2799   0.14  25.1   47  1.7  0.00  0.00  0.00  0.00    10


*MAIN GROWTH AND DEVELOPMENT VARIABLES

@     VARIABLE                                         SIMULATED     MEASURED
      --------                                         ---------     --------
      Anthesis day (dap)                                      59          -99
      Physiological maturity day (dap)                       116          -99
      Yield at harvest maturity (kg [dm]/ha)                 911          -99
      Number at maturity (no/m2)                             454          -99
      Unit wt at maturity (g [dm]/unit)                   0.2008          -99
      Number at maturity (no/unit)                          85.0          -99
      Tops weight at maturity (kg [dm]/ha)                  2799          -99
      By-product produced (stalk) at maturity (kg[dm]/ha    1921          -99
      Leaf area index, maximum                              1.09          -99
      Harvest index at maturity                            0.326          -99
      Grain N at maturity (kg/ha)                             17          -99
      Tops N at maturity (kg/ha)                              47          -99
      Stem N at maturity (kg/ha)                              27          -99
      Grain N at maturity (%)                                1.8          -99
      Tops weight at anthesis (kg [dm]/ha)                  2011          -99
      Tops N at anthesis (kg/ha)                              47          -99
      Leaf number per stem at maturity                     25.06          -99
      Emergence day (dap)                                      6          -99


*ENVIRONMENTAL AND STRESS FACTORS

 |-----Development Phase------|--------------------------------------Environment--------------------------------------|-----------------Stress-----------------|
                              |---------------Average--------------|-----Cumulative-----|--------Count of days--------|          (0=Min, 1=Max Stress)         |
                         Time  Temp  Temp  Temp Solar Photop                Evapo    Pot TMIN TMIN TMAX TMAX TMAX RAIN|----Water----|---Nitrogen--|-Phosphorus-|
                         Span   Max   Min  Mean   Rad  [day]    CO2   Rain  Trans     ET   <    <    >    >    >    >   Photo         Photo         Photo
                         days    邂    邂    邂 MJ/m2     hr    ppm     mm     mm     mm  0邂  2邂 30邂 32邂 34邂  0mm  synth Growth  synth Growth  synth Growth
----------------------------------------------------------------------------------------------------------------------------------------------------------------
 Emergence-End Juvenile    17  30.8  18.9  24.8  16.0   0.00  341.6    4.1   19.2   74.7    0    0   13    4    0    4  0.000  0.000  0.002  0.005  0.000  0.000
 End Juvenil-Floral Init    4  32.9  19.8  26.4  17.1   0.00  341.6    0.0    8.4   18.4    0    0    4    2    1    0  0.000  0.000  0.074  0.185  0.000  0.000
 Floral Init-End Lf Grow   32  33.7  20.5  27.1  16.9   0.00  341.7   19.2   57.0  144.0    0    0   31   26   16    6  0.371  0.520  0.462  0.687  0.000  0.000
 End Lf Grth-Beg Grn Fil    9  34.2  19.9  27.1  18.6   0.00  341.9    0.0    9.8   45.9    0    0    9    9    5    0  0.788  0.859  0.000  0.000  0.000  0.000
 Grain Filling Phase       45  33.3  21.2  27.2  16.3   8.45  342.0  120.2   59.0  209.2    0    0   42   34   17   13  0.560  0.618  0.000  0.000  0.000  0.000


 Planting to Harvest      116  32.8  20.4  26.6  16.6   3.74  341.8  196.0  173.3  533.2    0    0  102   75   39   27  0.381  0.450  0.130  0.197  0.000  0.000
----------------------------------------------------------------------------------------------------------------------------------------------------------------


*Resource Productivity
 Growing season length: 116 days 

 Precipitation during growing season       196.0 mm[rain]
   Dry Matter Productivity                  1.43 kg[DM]/m3[rain]          =   14.3 kg[DM]/ha per mm[rain]
   Yield Productivity                       0.46 kg[grain yield]/m3[rain] =    4.6 kg[yield]/ha per mm[rain]

 Evapotranspiration during growing season  173.3 mm[ET]
   Dry Matter Productivity                  1.61 kg[DM]/m3[ET]            =   16.1 kg[DM]/ha per mm[ET]
   Yield Productivity                       0.53 kg[grain yield]/m3[ET]   =    5.3 kg[yield]/ha per mm[ET]

 Transpiration during growing season        70.1 mm[EP]
   Dry Matter Productivity                  3.99 kg[DM]/m3[EP]            =   39.9 kg[DM]/ha per mm[EP]
   Yield Productivity                       1.30 kg[grain yield]/m3[EP]   =   13.0 kg[yield]/ha per mm[EP]

 N applied during growing season            161. kg[N applied]/ha
   Dry Matter Productivity                  17.4 kg[DM]/kg[N applied]
   Yield Productivity                        5.7 kg[yield]/kg[N applied]

 N uptake during growing season               51 kg[N uptake]/ha
   Dry Matter Productivity                  54.9 kg[DM]/kg[N uptake]
   Yield Productivity                       17.9 kg[yield]/kg[N uptake]

--------------------------------------------------------------------------------------------------------------

                     Maize YIELD :      911 kg/ha    [Dry weight] 

**************************************************************************************************************

*DSSAT Cropping System Model Ver. 4.6.1.000 -release      OCT 24, 2017; 10:26:53
                                                                                
*RUN  36        : P12/19                    MZCER046 ANBU1982   36              
 MODEL          : MZCER046 - Maize                                              
 EXPERIMENT     : ANBU1982 MZ  Analisis a침os de bajo rendimiento Buga          
 DATA PATH      : C:\DSSAT46\maize\                                             
 TREATMENT 36   : P12/19                    MZCER046                            
                                                                                
                                                                                
 CROP           : Maize            CULTIVAR : DK234            ECOTYPE :IB0001  
 STARTING DATE  : NOV 19 1982                                                   
 PLANTING DATE  : DEC 19 1982        PLANTS/m2 :  6.2     ROW SPACING :  80.cm  
 WEATHER        : CUNI   1982                                                   
 SOIL           : CCBUGA2017     TEXTURE : CL    -   Suelo Buga MADR Fase I     
 SOIL INITIAL C : DEPTH: 90cm EXTR. H2O: 83.9mm  NO3:  0.0kg/ha  NH4:  0.0kg/ha 
 WATER BALANCE  : RAINFED                                                       
 IRRIGATION     : NOT IRRIGATED                                                 
 NITROGEN BAL.  : SOIL-N & N-UPTAKE SIMULATION; NO N-FIXATION                   
 N-FERTILIZER   :      161 kg/ha IN     5 APPLICATIONS                          
 RESIDUE/MANURE : INITIAL :     0 kg/ha ;       0 kg/ha IN     0 APPLICATIONS   
 ENVIRONM. OPT. : DAYL=    0.00  SRAD=    0.00  TMAX=    0.00  TMIN=    0.00    
                  RAIN=    0.00  CO2 =    0.00  DEW =    0.00  WIND=    0.00    
 SIMULATION OPT : WATER   :Y  NITROGEN:Y  N-FIX:N  PHOSPH :N  PESTS  :N         
                  PHOTO   :C  ET      :R  INFIL:S  HYDROL :R  SOM    :G         
                  CO2 341ppm  NSWIT   :1  EVAP :S  SOIL   :2  STEMP  :D         
 MANAGEMENT OPT : PLANTING:R  IRRIG   :N  FERT :D  RESIDUE:R  HARVEST:M         
                  WEATHER :M  TILLAGE :N                                        
                                                                                
*SUMMARY OF SOIL AND GENETIC INPUT PARAMETERS                                   
                                                                                
   SOIL LOWER UPPER   SAT  EXTR  INIT   ROOT   BULK     pH    NO3    NH4    ORG 
  DEPTH LIMIT LIMIT    SW    SW    SW   DIST   DENS                          C  
   cm   cm3/cm3    cm3/cm3    cm3/cm3         g/cm3         ugN/g  ugN/g     %  
------------------------------------------------------------------------------- 
  0-  5 0.215 0.331 0.341 0.116 0.331   1.00   1.68   6.70   0.00   0.00   0.75 
  5- 15 0.215 0.331 0.341 0.116 0.331   1.00   1.68   6.70   0.00   0.00   0.75 
 15- 25 0.215 0.331 0.341 0.116 0.331   1.00   1.68   6.70   0.00   0.00   0.75 
 25- 35 0.181 0.291 0.364 0.110 0.291   0.50   1.61   7.20   0.00   0.00   0.53 
 35- 45 0.181 0.291 0.364 0.110 0.291   0.50   1.61   7.20   0.00   0.00   0.53 
 45- 67 0.096 0.169 0.404 0.073 0.169   0.27   1.51   7.00   0.00   0.00   0.05 
 67- 90 0.096 0.169 0.404 0.073 0.169   0.27   1.51   7.00   0.00   0.00   0.05 
                                                                                
TOT- 90  13.3  21.7  34.0   8.4  21.7  <--cm   -  kg/ha-->    0.0    0.0  51964 
SOIL ALBEDO    : 0.09      EVAPORATION LIMIT : 6.00         MIN. FACTOR  : 1.00 
RUNOFF CURVE # :76.00      DRAINAGE RATE     : 0.60         FERT. FACTOR : 1.00 
                                                                                
 Maize      CULTIVAR :CI0002-DK234              ECOTYPE :IB0001                 
 P1     : 300.00  P2     : 0.4000  P5     :1075.00                              
 G2     : 890.00  G3     :  7.750  PHINT  : 40.000                              


*SIMULATED CROP AND SOIL STATUS AT MAIN DEVELOPMENT STAGES

 RUN NO.    36     P12/19                  

        CROP GROWTH     BIOMASS         LEAF   CROP N     STRESS      STRESS                                           
   DATE  AGE STAGE        kg/ha    LAI   NUM  kg/ha  %   H2O  Nitr Phos1 Phos2  RSTG                                   
 ------  --- ----------   -----  -----  ----  ---  ---  ----  ----  ----  ----  ----                                   
 19 NOV    0 Start Sim        0   0.00   0.0    0  0.0  0.00  0.00  0.00  0.00     7
 19 DEC    0 Sowing           0   0.00   0.0    0  0.0  0.00  0.00  0.00  0.00     8
 20 DEC    1 Germinate        0   0.00   0.0    0  0.0  0.00  0.00  0.00  0.00     9
 25 DEC    6 Emergence       25   0.00   2.1    1  4.4  0.00  0.01  0.00  0.00     1
 10 JAN   22 End Juveni     325   0.59   9.9    8  2.6  0.01  0.02  0.00  0.00     2
 14 JAN   26 Floral Ini     527   0.82  11.9   11  2.0  0.00  0.40  0.00  0.00     3
 15 FEB   58 75% Silkin    1952   0.66  24.8   46  2.3  0.60  0.57  0.00  0.00     4
 24 FEB   67 Beg Gr Fil    1917   0.46  24.8   46  2.4  0.88  0.00  0.00  0.00     5
 10 APR  112 End Gr Fil    2746   0.16  24.8   46  1.7  0.52  0.00  0.00  0.00     6
 13 APR  115 Maturity      2746   0.16  24.8   46  1.7  0.00  0.00  0.00  0.00    10
 13 APR  115 Harvest       2746   0.16  24.8   46  1.7  0.00  0.00  0.00  0.00    10


*MAIN GROWTH AND DEVELOPMENT VARIABLES

@     VARIABLE                                         SIMULATED     MEASURED
      --------                                         ---------     --------
      Anthesis day (dap)                                      58          -99
      Physiological maturity day (dap)                       115          -99
      Yield at harvest maturity (kg [dm]/ha)                 896          -99
      Number at maturity (no/m2)                             393          -99
      Unit wt at maturity (g [dm]/unit)                   0.2280          -99
      Number at maturity (no/unit)                          76.3          -99
      Tops weight at maturity (kg [dm]/ha)                  2746          -99
      By-product produced (stalk) at maturity (kg[dm]/ha    1884          -99
      Leaf area index, maximum                              1.05          -99
      Harvest index at maturity                            0.326          -99
      Grain N at maturity (kg/ha)                             16          -99
      Tops N at maturity (kg/ha)                              46          -99
      Stem N at maturity (kg/ha)                              26          -99
      Grain N at maturity (%)                                1.8          -99
      Tops weight at anthesis (kg [dm]/ha)                  1944          -99
      Tops N at anthesis (kg/ha)                              46          -99
      Leaf number per stem at maturity                     24.78          -99
      Emergence day (dap)                                      6          -99


*ENVIRONMENTAL AND STRESS FACTORS

 |-----Development Phase------|--------------------------------------Environment--------------------------------------|-----------------Stress-----------------|
                              |---------------Average--------------|-----Cumulative-----|--------Count of days--------|          (0=Min, 1=Max Stress)         |
                         Time  Temp  Temp  Temp Solar Photop                Evapo    Pot TMIN TMIN TMAX TMAX TMAX RAIN|----Water----|---Nitrogen--|-Phosphorus-|
                         Span   Max   Min  Mean   Rad  [day]    CO2   Rain  Trans     ET   <    <    >    >    >    >   Photo         Photo         Photo
                         days    邂    邂    邂 MJ/m2     hr    ppm     mm     mm     mm  0邂  2邂 30邂 32邂 34邂  0mm  synth Growth  synth Growth  synth Growth
----------------------------------------------------------------------------------------------------------------------------------------------------------------
 Emergence-End Juvenile    16  31.3  18.9  25.1  15.9   0.00  341.6    3.4   16.6   69.9    0    0   13    6    1    2  0.000  0.013  0.003  0.007  0.000  0.000
 End Juvenil-Floral Init    4  32.8  20.4  26.6  16.4   0.00  341.6    0.0    7.6   17.7    0    0    4    3    1    0  0.000  0.004  0.131  0.328  0.000  0.000
 Floral Init-End Lf Grow   32  33.8  20.5  27.1  17.4   0.00  341.8   19.2   55.0  149.0    0    0   31   27   16    6  0.416  0.573  0.390  0.584  0.000  0.000
 End Lf Grth-Beg Grn Fil    9  34.7  20.4  27.6  17.2   0.00  341.9    0.0    7.2   43.5    0    0    9    9    6    0  0.819  0.880  0.000  0.000  0.000  0.000
 Grain Filling Phase       45  32.7  21.1  26.9  15.8  10.07  342.0  173.7   70.0  201.5    0    0   39   30   15   17  0.486  0.539  0.000  0.000  0.000  0.000


 Planting to Harvest      115  32.8  20.4  26.6  16.4   4.46  341.9  197.8  172.0  522.1    0    0  101   75   39   28  0.370  0.441  0.113  0.175  0.000  0.000
----------------------------------------------------------------------------------------------------------------------------------------------------------------


*Resource Productivity
 Growing season length: 115 days 

 Precipitation during growing season       197.8 mm[rain]
   Dry Matter Productivity                  1.39 kg[DM]/m3[rain]          =   13.9 kg[DM]/ha per mm[rain]
   Yield Productivity                       0.45 kg[grain yield]/m3[rain] =    4.5 kg[yield]/ha per mm[rain]

 Evapotranspiration during growing season  172.0 mm[ET]
   Dry Matter Productivity                  1.60 kg[DM]/m3[ET]            =   16.0 kg[DM]/ha per mm[ET]
   Yield Productivity                       0.52 kg[grain yield]/m3[ET]   =    5.2 kg[yield]/ha per mm[ET]

 Transpiration during growing season        67.4 mm[EP]
   Dry Matter Productivity                  4.08 kg[DM]/m3[EP]            =   40.8 kg[DM]/ha per mm[EP]
   Yield Productivity                       1.33 kg[grain yield]/m3[EP]   =   13.3 kg[yield]/ha per mm[EP]

 N applied during growing season            161. kg[N applied]/ha
   Dry Matter Productivity                  17.1 kg[DM]/kg[N applied]
   Yield Productivity                        5.6 kg[yield]/kg[N applied]

 N uptake during growing season               50 kg[N uptake]/ha
   Dry Matter Productivity                  54.9 kg[DM]/kg[N uptake]
   Yield Productivity                       17.9 kg[yield]/kg[N uptake]

--------------------------------------------------------------------------------------------------------------

                     Maize YIELD :      896 kg/ha    [Dry weight] 

**************************************************************************************************************
