*SIMULATION OVERVIEW FILE

*DSSAT Cropping System Model Ver. 4.6.1.000 -release      OCT 24, 2017; 10:59:43
                                                                                
*RUN   1        : P07/14                    MZCER046 ANES1986    1              
 MODEL          : MZCER046 - Maize                                              
 EXPERIMENT     : ANES1986 MZ  Analisis a침os de bajo rendimiento Espinal       
 DATA PATH      : C:\DSSAT46\maize\                                             
 TREATMENT  1   : P07/14                    MZCER046                            
                                                                                
                                                                                
 CROP           : Maize            CULTIVAR : DK7088           ECOTYPE :IB0001  
 STARTING DATE  : JUN 14 1986                                                   
 PLANTING DATE  : JUL 14 1986        PLANTS/m2 :  6.2     ROW SPACING :  80.cm  
 WEATHER        : CNAT   1986                                                   
 SOIL           : CCESPI2017     TEXTURE : SL    -   Suelo Espinal Calibraci    
 SOIL INITIAL C : DEPTH:100cm EXTR. H2O: 83.6mm  NO3:  0.0kg/ha  NH4:  0.0kg/ha 
 WATER BALANCE  : RAINFED                                                       
 IRRIGATION     : NOT IRRIGATED                                                 
 NITROGEN BAL.  : SOIL-N & N-UPTAKE SIMULATION; NO N-FIXATION                   
 N-FERTILIZER   :      162 kg/ha IN     6 APPLICATIONS                          
 RESIDUE/MANURE : INITIAL :     0 kg/ha ;       0 kg/ha IN     0 APPLICATIONS   
 ENVIRONM. OPT. : DAYL=    0.00  SRAD=    0.00  TMAX=    0.00  TMIN=    0.00    
                  RAIN=    0.00  CO2 =    0.00  DEW =    0.00  WIND=    0.00    
 SIMULATION OPT : WATER   :Y  NITROGEN:Y  N-FIX:N  PHOSPH :N  PESTS  :N         
                  PHOTO   :C  ET      :R  INFIL:S  HYDROL :R  SOM    :G         
                  CO2 347ppm  NSWIT   :1  EVAP :S  SOIL   :2  STEMP  :D         
 MANAGEMENT OPT : PLANTING:R  IRRIG   :N  FERT :D  RESIDUE:R  HARVEST:M         
                  WEATHER :M  TILLAGE :N                                        
                                                                                
*SUMMARY OF SOIL AND GENETIC INPUT PARAMETERS                                   
                                                                                
   SOIL LOWER UPPER   SAT  EXTR  INIT   ROOT   BULK     pH    NO3    NH4    ORG 
  DEPTH LIMIT LIMIT    SW    SW    SW   DIST   DENS                          C  
   cm   cm3/cm3    cm3/cm3    cm3/cm3         g/cm3         ugN/g  ugN/g     %  
------------------------------------------------------------------------------- 
  0-  5 0.160 0.252 0.376 0.092 0.252   1.00   1.69   6.60   0.00   0.00   0.45 
  5- 15 0.160 0.252 0.376 0.092 0.252   1.00   1.69   6.60   0.00   0.00   0.45 
 15- 30 0.160 0.252 0.376 0.092 0.252   1.00   1.69   6.60   0.00   0.00   0.45 
 30- 53 0.120 0.200 0.440 0.080 0.200   0.27   1.40   7.10   0.00   0.00   0.17 
 53- 77 0.120 0.200 0.440 0.080 0.200   0.27   1.40   7.10   0.00   0.00   0.17 
 77-100 0.120 0.200 0.440 0.080 0.200   0.27   1.40   7.10   0.00   0.00   0.17 
                                                                                
TOT-100  13.2  21.6  42.1   8.4  21.6  <--cm   -  kg/ha-->    0.0    0.0  39475 
SOIL ALBEDO    : 0.09      EVAPORATION LIMIT : 6.00         MIN. FACTOR  : 1.00 
RUNOFF CURVE # :76.00      DRAINAGE RATE     : 0.60         FERT. FACTOR : 1.00 
                                                                                
 Maize      CULTIVAR :CI0004-DK7088             ECOTYPE :IB0001                 
 P1     : 229.00  P2     : 0.3000  P5     : 971.00                              
 G2     : 957.00  G3     :  7.500  PHINT  : 45.000                              


*SIMULATED CROP AND SOIL STATUS AT MAIN DEVELOPMENT STAGES

 RUN NO.     1     P07/14                  

        CROP GROWTH     BIOMASS         LEAF   CROP N     STRESS      STRESS                                           
   DATE  AGE STAGE        kg/ha    LAI   NUM  kg/ha  %   H2O  Nitr Phos1 Phos2  RSTG                                   
 ------  --- ----------   -----  -----  ----  ---  ---  ----  ----  ----  ----  ----                                   
 14 JUN    0 Start Sim        0   0.00   0.0    0  0.0  0.00  0.00  0.00  0.00     7
 14 JUL    0 Sowing           0   0.00   0.0    0  0.0  0.00  0.00  0.00  0.00     8
 15 JUL    1 Germinate        0   0.00   0.0    0  0.0  0.00  0.00  0.00  0.00     9
 19 JUL    5 Emergence       25   0.00   2.2    1  4.4  0.00  0.01  0.00  0.00     1
 30 JUL   16 End Juveni     131   0.27   7.8    4  3.3  0.04  0.00  0.00  0.00     2
  6 AUG   23 Floral Ini     383   0.62  11.2    6  1.7  0.27  0.30  0.00  0.00     3
  7 SEP   55 75% Silkin    2682   1.04  22.8   63  2.3  0.57  0.26  0.00  0.00     4
 15 SEP   63 Beg Gr Fil    2578   0.71  22.8   63  2.4  0.95  0.00  0.00  0.00     5
 25 OCT  103 End Gr Fil    3619   0.52  22.8   63  1.7  0.16  0.00  0.00  0.00     6
 28 OCT  106 Maturity      3619   0.52  22.8   63  1.7  0.00  0.00  0.00  0.00    10
 28 OCT  106 Harvest       3619   0.52  22.8   63  1.7  0.00  0.00  0.00  0.00    10


*MAIN GROWTH AND DEVELOPMENT VARIABLES

@     VARIABLE                                         SIMULATED     MEASURED
      --------                                         ---------     --------
      Anthesis day (dap)                                      55          -99
      Physiological maturity day (dap)                       106          -99
      Yield at harvest maturity (kg [dm]/ha)                 817          -99
      Number at maturity (no/m2)                             326          -99
      Unit wt at maturity (g [dm]/unit)                   0.2508          -99
      Number at maturity (no/unit)                          67.4          -99
      Tops weight at maturity (kg [dm]/ha)                  3619          -99
      By-product produced (stalk) at maturity (kg[dm]/ha    2837          -99
      Leaf area index, maximum                              1.41          -99
      Harvest index at maturity                            0.226          -99
      Grain N at maturity (kg/ha)                             14          -99
      Tops N at maturity (kg/ha)                              63          -99
      Stem N at maturity (kg/ha)                              45          -99
      Grain N at maturity (%)                                1.7          -99
      Tops weight at anthesis (kg [dm]/ha)                  2685          -99
      Tops N at anthesis (kg/ha)                              63          -99
      Leaf number per stem at maturity                     22.80          -99
      Emergence day (dap)                                      5          -99


*ENVIRONMENTAL AND STRESS FACTORS

 |-----Development Phase------|--------------------------------------Environment--------------------------------------|-----------------Stress-----------------|
                              |---------------Average--------------|-----Cumulative-----|--------Count of days--------|          (0=Min, 1=Max Stress)         |
                         Time  Temp  Temp  Temp Solar Photop                Evapo    Pot TMIN TMIN TMAX TMAX TMAX RAIN|----Water----|---Nitrogen--|-Phosphorus-|
                         Span   Max   Min  Mean   Rad  [day]    CO2   Rain  Trans     ET   <    <    >    >    >    >   Photo         Photo         Photo
                         days    邂    邂    邂 MJ/m2     hr    ppm     mm     mm     mm  0邂  2邂 30邂 32邂 34邂  0mm  synth Growth  synth Growth  synth Growth
----------------------------------------------------------------------------------------------------------------------------------------------------------------
 Emergence-End Juvenile    11  34.3  20.8  27.6  20.0  24.00  347.2    0.0    5.5   64.4    0    0   10   10    7    0  0.016  0.043  0.002  0.006  0.000  0.000
 End Juvenil-Floral Init    7  34.7  21.3  28.0  18.8  24.00  347.2    0.0    9.8   37.1    0    0    7    7    6    0  0.029  0.236  0.092  0.217  0.000  0.000
 Floral Init-End Lf Grow   32  34.5  22.4  28.4  20.2  22.80  347.3   48.3   73.5  181.4    0    0   32   26   18    9  0.403  0.550  0.181  0.276  0.000  0.000
 End Lf Grth-Beg Grn Fil    8  36.4  23.2  29.8  18.5  15.63  347.3    0.0    4.7   44.7    0    0    8    8    7    0  0.928  0.952  0.000  0.000  0.000  0.000
 Grain Filling Phase       40  31.7  21.9  26.8  18.6   6.39  347.5  294.3  158.2  209.2    0    0   27   13    9   28  0.179  0.186  0.000  0.000  0.000  0.000


 Planting to Harvest      106  33.4  21.9  27.7  19.1  15.68  347.3  372.2  267.2  574.4    0    0   90   69   49   40  0.263  0.328  0.061  0.098  0.000  0.000
----------------------------------------------------------------------------------------------------------------------------------------------------------------


*Resource Productivity
 Growing season length: 106 days 

 Precipitation during growing season       372.2 mm[rain]
   Dry Matter Productivity                  0.97 kg[DM]/m3[rain]          =    9.7 kg[DM]/ha per mm[rain]
   Yield Productivity                       0.22 kg[grain yield]/m3[rain] =    2.2 kg[yield]/ha per mm[rain]

 Evapotranspiration during growing season  267.2 mm[ET]
   Dry Matter Productivity                  1.35 kg[DM]/m3[ET]            =   13.5 kg[DM]/ha per mm[ET]
   Yield Productivity                       0.31 kg[grain yield]/m3[ET]   =    3.1 kg[yield]/ha per mm[ET]

 Transpiration during growing season       113.2 mm[EP]
   Dry Matter Productivity                  3.20 kg[DM]/m3[EP]            =   32.0 kg[DM]/ha per mm[EP]
   Yield Productivity                       0.72 kg[grain yield]/m3[EP]   =    7.2 kg[yield]/ha per mm[EP]

 N applied during growing season            162. kg[N applied]/ha
   Dry Matter Productivity                  22.3 kg[DM]/kg[N applied]
   Yield Productivity                        5.0 kg[yield]/kg[N applied]

 N uptake during growing season               67 kg[N uptake]/ha
   Dry Matter Productivity                  54.0 kg[DM]/kg[N uptake]
   Yield Productivity                       12.2 kg[yield]/kg[N uptake]

--------------------------------------------------------------------------------------------------------------

                     Maize YIELD :      817 kg/ha    [Dry weight] 

**************************************************************************************************************

*DSSAT Cropping System Model Ver. 4.6.1.000 -release      OCT 24, 2017; 10:59:44
                                                                                
*RUN   2        : P07/19                    MZCER046 ANES1986    2              
 MODEL          : MZCER046 - Maize                                              
 EXPERIMENT     : ANES1986 MZ  Analisis a침os de bajo rendimiento Espinal       
 DATA PATH      : C:\DSSAT46\maize\                                             
 TREATMENT  2   : P07/19                    MZCER046                            
                                                                                
                                                                                
 CROP           : Maize            CULTIVAR : DK7088           ECOTYPE :IB0001  
 STARTING DATE  : JUN 19 1986                                                   
 PLANTING DATE  : JUL 19 1986        PLANTS/m2 :  6.2     ROW SPACING :  80.cm  
 WEATHER        : CNAT   1986                                                   
 SOIL           : CCESPI2017     TEXTURE : SL    -   Suelo Espinal Calibraci    
 SOIL INITIAL C : DEPTH:100cm EXTR. H2O: 83.6mm  NO3:  0.0kg/ha  NH4:  0.0kg/ha 
 WATER BALANCE  : RAINFED                                                       
 IRRIGATION     : NOT IRRIGATED                                                 
 NITROGEN BAL.  : SOIL-N & N-UPTAKE SIMULATION; NO N-FIXATION                   
 N-FERTILIZER   :      162 kg/ha IN     6 APPLICATIONS                          
 RESIDUE/MANURE : INITIAL :     0 kg/ha ;       0 kg/ha IN     0 APPLICATIONS   
 ENVIRONM. OPT. : DAYL=    0.00  SRAD=    0.00  TMAX=    0.00  TMIN=    0.00    
                  RAIN=    0.00  CO2 =    0.00  DEW =    0.00  WIND=    0.00    
 SIMULATION OPT : WATER   :Y  NITROGEN:Y  N-FIX:N  PHOSPH :N  PESTS  :N         
                  PHOTO   :C  ET      :R  INFIL:S  HYDROL :R  SOM    :G         
                  CO2 347ppm  NSWIT   :1  EVAP :S  SOIL   :2  STEMP  :D         
 MANAGEMENT OPT : PLANTING:R  IRRIG   :N  FERT :D  RESIDUE:R  HARVEST:M         
                  WEATHER :M  TILLAGE :N                                        
                                                                                
*SUMMARY OF SOIL AND GENETIC INPUT PARAMETERS                                   
                                                                                
   SOIL LOWER UPPER   SAT  EXTR  INIT   ROOT   BULK     pH    NO3    NH4    ORG 
  DEPTH LIMIT LIMIT    SW    SW    SW   DIST   DENS                          C  
   cm   cm3/cm3    cm3/cm3    cm3/cm3         g/cm3         ugN/g  ugN/g     %  
------------------------------------------------------------------------------- 
  0-  5 0.160 0.252 0.376 0.092 0.252   1.00   1.69   6.60   0.00   0.00   0.45 
  5- 15 0.160 0.252 0.376 0.092 0.252   1.00   1.69   6.60   0.00   0.00   0.45 
 15- 30 0.160 0.252 0.376 0.092 0.252   1.00   1.69   6.60   0.00   0.00   0.45 
 30- 53 0.120 0.200 0.440 0.080 0.200   0.27   1.40   7.10   0.00   0.00   0.17 
 53- 77 0.120 0.200 0.440 0.080 0.200   0.27   1.40   7.10   0.00   0.00   0.17 
 77-100 0.120 0.200 0.440 0.080 0.200   0.27   1.40   7.10   0.00   0.00   0.17 
                                                                                
TOT-100  13.2  21.6  42.1   8.4  21.6  <--cm   -  kg/ha-->    0.0    0.0  39475 
SOIL ALBEDO    : 0.09      EVAPORATION LIMIT : 6.00         MIN. FACTOR  : 1.00 
RUNOFF CURVE # :76.00      DRAINAGE RATE     : 0.60         FERT. FACTOR : 1.00 
                                                                                
 Maize      CULTIVAR :CI0004-DK7088             ECOTYPE :IB0001                 
 P1     : 229.00  P2     : 0.3000  P5     : 971.00                              
 G2     : 957.00  G3     :  7.500  PHINT  : 45.000                              


*SIMULATED CROP AND SOIL STATUS AT MAIN DEVELOPMENT STAGES

 RUN NO.     2     P07/19                  

        CROP GROWTH     BIOMASS         LEAF   CROP N     STRESS      STRESS                                           
   DATE  AGE STAGE        kg/ha    LAI   NUM  kg/ha  %   H2O  Nitr Phos1 Phos2  RSTG                                   
 ------  --- ----------   -----  -----  ----  ---  ---  ----  ----  ----  ----  ----                                   
 19 JUN    0 Start Sim        0   0.00   0.0    0  0.0  0.00  0.00  0.00  0.00     7
 19 JUL    0 Sowing           0   0.00   0.0    0  0.0  0.00  0.00  0.00  0.00     8
 20 JUL    1 Germinate        0   0.00   0.0    0  0.0  0.00  0.00  0.00  0.00     9
 24 JUL    5 Emergence       25   0.00   2.2    1  4.4  0.00  0.01  0.00  0.00     1
  4 AUG   16 End Juveni     157   0.32   7.9    5  3.1  0.00  0.00  0.00  0.00     2
 11 AUG   23 Floral Ini     405   0.63  11.4    7  1.6  0.29  0.39  0.00  0.00     3
 12 SEP   55 75% Silkin    2653   1.03  23.4   66  2.5  0.56  0.14  0.00  0.00     4
 20 SEP   63 Beg Gr Fil    2617   0.72  23.4   66  2.5  0.91  0.00  0.00  0.00     5
  1 NOV  105 End Gr Fil    4128   0.67  23.4   66  1.6  0.04  0.00  0.00  0.00     6
  3 NOV  107 Maturity      4128   0.67  23.4   66  1.6  0.00  0.00  0.00  0.00    10
  3 NOV  107 Harvest       4128   0.67  23.4   66  1.6  0.00  0.00  0.00  0.00    10


*MAIN GROWTH AND DEVELOPMENT VARIABLES

@     VARIABLE                                         SIMULATED     MEASURED
      --------                                         ---------     --------
      Anthesis day (dap)                                      55          -99
      Physiological maturity day (dap)                       107          -99
      Yield at harvest maturity (kg [dm]/ha)                1273          -99
      Number at maturity (no/m2)                             432          -99
      Unit wt at maturity (g [dm]/unit)                   0.2950          -99
      Number at maturity (no/unit)                          83.3          -99
      Tops weight at maturity (kg [dm]/ha)                  4128          -99
      By-product produced (stalk) at maturity (kg[dm]/ha    2894          -99
      Leaf area index, maximum                              1.62          -99
      Harvest index at maturity                            0.308          -99
      Grain N at maturity (kg/ha)                             22          -99
      Tops N at maturity (kg/ha)                              66          -99
      Stem N at maturity (kg/ha)                              39          -99
      Grain N at maturity (%)                                1.7          -99
      Tops weight at anthesis (kg [dm]/ha)                  2653          -99
      Tops N at anthesis (kg/ha)                              66          -99
      Leaf number per stem at maturity                     23.44          -99
      Emergence day (dap)                                      5          -99


*ENVIRONMENTAL AND STRESS FACTORS

 |-----Development Phase------|--------------------------------------Environment--------------------------------------|-----------------Stress-----------------|
                              |---------------Average--------------|-----Cumulative-----|--------Count of days--------|          (0=Min, 1=Max Stress)         |
                         Time  Temp  Temp  Temp Solar Photop                Evapo    Pot TMIN TMIN TMAX TMAX TMAX RAIN|----Water----|---Nitrogen--|-Phosphorus-|
                         Span   Max   Min  Mean   Rad  [day]    CO2   Rain  Trans     ET   <    <    >    >    >    >   Photo         Photo         Photo
                         days    邂    邂    邂 MJ/m2     hr    ppm     mm     mm     mm  0邂  2邂 30邂 32邂 34邂  0mm  synth Growth  synth Growth  synth Growth
----------------------------------------------------------------------------------------------------------------------------------------------------------------
 Emergence-End Juvenile    11  34.8  21.1  28.0  19.8  24.00  347.2    0.0    5.4   63.7    0    0   11   11    9    0  0.000  0.005  0.002  0.006  0.000  0.000
 End Juvenil-Floral Init    7  36.1  22.2  29.1  21.9  24.00  347.2    0.0   11.2   45.8    0    0    7    7    7    0  0.128  0.291  0.136  0.302  0.000  0.000
 Floral Init-End Lf Grow   32  34.4  22.5  28.4  19.6  21.58  347.3   48.3   71.2  174.2    0    0   32   26   17    9  0.454  0.534  0.100  0.156  0.000  0.000
 End Lf Grth-Beg Grn Fil    8  37.1  24.3  30.7  21.2  13.81  347.4    0.6    5.3   53.1    0    0    8    8    8    2  0.878  0.919  0.000  0.000  0.000  0.000
 Grain Filling Phase       42  30.7  21.4  26.0  17.9   4.50  347.5  325.2  181.2  201.7    0    0   24    8    4   31  0.053  0.060  0.000  0.000  0.000  0.000


 Planting to Harvest      107  33.2  21.9  27.6  19.1  14.41  347.4  374.4  281.0  575.2    0    0   88   65   47   43  0.231  0.271  0.039  0.067  0.000  0.000
----------------------------------------------------------------------------------------------------------------------------------------------------------------


*Resource Productivity
 Growing season length: 107 days 

 Precipitation during growing season       374.4 mm[rain]
   Dry Matter Productivity                  1.10 kg[DM]/m3[rain]          =   11.0 kg[DM]/ha per mm[rain]
   Yield Productivity                       0.34 kg[grain yield]/m3[rain] =    3.4 kg[yield]/ha per mm[rain]

 Evapotranspiration during growing season  281.0 mm[ET]
   Dry Matter Productivity                  1.47 kg[DM]/m3[ET]            =   14.7 kg[DM]/ha per mm[ET]
   Yield Productivity                       0.45 kg[grain yield]/m3[ET]   =    4.5 kg[yield]/ha per mm[ET]

 Transpiration during growing season       134.8 mm[EP]
   Dry Matter Productivity                  3.06 kg[DM]/m3[EP]            =   30.6 kg[DM]/ha per mm[EP]
   Yield Productivity                       0.94 kg[grain yield]/m3[EP]   =    9.4 kg[yield]/ha per mm[EP]

 N applied during growing season            162. kg[N applied]/ha
   Dry Matter Productivity                  25.5 kg[DM]/kg[N applied]
   Yield Productivity                        7.9 kg[yield]/kg[N applied]

 N uptake during growing season               71 kg[N uptake]/ha
   Dry Matter Productivity                  58.1 kg[DM]/kg[N uptake]
   Yield Productivity                       17.9 kg[yield]/kg[N uptake]

--------------------------------------------------------------------------------------------------------------

                     Maize YIELD :     1273 kg/ha    [Dry weight] 

**************************************************************************************************************

*DSSAT Cropping System Model Ver. 4.6.1.000 -release      OCT 24, 2017; 10:59:44
                                                                                
*RUN   3        : P07/24                    MZCER046 ANES1986    3              
 MODEL          : MZCER046 - Maize                                              
 EXPERIMENT     : ANES1986 MZ  Analisis a침os de bajo rendimiento Espinal       
 DATA PATH      : C:\DSSAT46\maize\                                             
 TREATMENT  3   : P07/24                    MZCER046                            
                                                                                
                                                                                
 CROP           : Maize            CULTIVAR : DK7088           ECOTYPE :IB0001  
 STARTING DATE  : JUN 24 1986                                                   
 PLANTING DATE  : JUL 24 1986        PLANTS/m2 :  6.2     ROW SPACING :  80.cm  
 WEATHER        : CNAT   1986                                                   
 SOIL           : CCESPI2017     TEXTURE : SL    -   Suelo Espinal Calibraci    
 SOIL INITIAL C : DEPTH:100cm EXTR. H2O: 83.6mm  NO3:  0.0kg/ha  NH4:  0.0kg/ha 
 WATER BALANCE  : RAINFED                                                       
 IRRIGATION     : NOT IRRIGATED                                                 
 NITROGEN BAL.  : SOIL-N & N-UPTAKE SIMULATION; NO N-FIXATION                   
 N-FERTILIZER   :      162 kg/ha IN     6 APPLICATIONS                          
 RESIDUE/MANURE : INITIAL :     0 kg/ha ;       0 kg/ha IN     0 APPLICATIONS   
 ENVIRONM. OPT. : DAYL=    0.00  SRAD=    0.00  TMAX=    0.00  TMIN=    0.00    
                  RAIN=    0.00  CO2 =    0.00  DEW =    0.00  WIND=    0.00    
 SIMULATION OPT : WATER   :Y  NITROGEN:Y  N-FIX:N  PHOSPH :N  PESTS  :N         
                  PHOTO   :C  ET      :R  INFIL:S  HYDROL :R  SOM    :G         
                  CO2 347ppm  NSWIT   :1  EVAP :S  SOIL   :2  STEMP  :D         
 MANAGEMENT OPT : PLANTING:R  IRRIG   :N  FERT :D  RESIDUE:R  HARVEST:M         
                  WEATHER :M  TILLAGE :N                                        
                                                                                
*SUMMARY OF SOIL AND GENETIC INPUT PARAMETERS                                   
                                                                                
   SOIL LOWER UPPER   SAT  EXTR  INIT   ROOT   BULK     pH    NO3    NH4    ORG 
  DEPTH LIMIT LIMIT    SW    SW    SW   DIST   DENS                          C  
   cm   cm3/cm3    cm3/cm3    cm3/cm3         g/cm3         ugN/g  ugN/g     %  
------------------------------------------------------------------------------- 
  0-  5 0.160 0.252 0.376 0.092 0.252   1.00   1.69   6.60   0.00   0.00   0.45 
  5- 15 0.160 0.252 0.376 0.092 0.252   1.00   1.69   6.60   0.00   0.00   0.45 
 15- 30 0.160 0.252 0.376 0.092 0.252   1.00   1.69   6.60   0.00   0.00   0.45 
 30- 53 0.120 0.200 0.440 0.080 0.200   0.27   1.40   7.10   0.00   0.00   0.17 
 53- 77 0.120 0.200 0.440 0.080 0.200   0.27   1.40   7.10   0.00   0.00   0.17 
 77-100 0.120 0.200 0.440 0.080 0.200   0.27   1.40   7.10   0.00   0.00   0.17 
                                                                                
TOT-100  13.2  21.6  42.1   8.4  21.6  <--cm   -  kg/ha-->    0.0    0.0  39475 
SOIL ALBEDO    : 0.09      EVAPORATION LIMIT : 6.00         MIN. FACTOR  : 1.00 
RUNOFF CURVE # :76.00      DRAINAGE RATE     : 0.60         FERT. FACTOR : 1.00 
                                                                                
 Maize      CULTIVAR :CI0004-DK7088             ECOTYPE :IB0001                 
 P1     : 229.00  P2     : 0.3000  P5     : 971.00                              
 G2     : 957.00  G3     :  7.500  PHINT  : 45.000                              


*SIMULATED CROP AND SOIL STATUS AT MAIN DEVELOPMENT STAGES

 RUN NO.     3     P07/24                  

        CROP GROWTH     BIOMASS         LEAF   CROP N     STRESS      STRESS                                           
   DATE  AGE STAGE        kg/ha    LAI   NUM  kg/ha  %   H2O  Nitr Phos1 Phos2  RSTG                                   
 ------  --- ----------   -----  -----  ----  ---  ---  ----  ----  ----  ----  ----                                   
 24 JUN    0 Start Sim        0   0.00   0.0    0  0.0  0.00  0.00  0.00  0.00     7
 24 JUL    0 Sowing           0   0.00   0.0    0  0.0  0.00  0.00  0.00  0.00     8
 25 JUL    1 Germinate        0   0.00   0.0    0  0.0  0.00  0.00  0.00  0.00     9
 29 JUL    5 Emergence       25   0.00   2.2    1  4.4  0.00  0.01  0.00  0.00     1
  9 AUG   16 End Juveni     148   0.30   8.0    5  3.1  0.05  0.00  0.00  0.00     2
 16 AUG   23 Floral Ini     380   0.61  11.3    7  1.7  0.17  0.35  0.00  0.00     3
 17 SEP   55 75% Silkin    2240   0.88  23.5   58  2.6  0.66  0.02  0.00  0.00     4
 25 SEP   63 Beg Gr Fil    2480   0.71  23.5   58  2.3  0.57  0.00  0.00  0.00     5
  6 NOV  105 End Gr Fil    4906   0.71  23.5   64  1.3  0.00  0.00  0.00  0.00     6
  9 NOV  108 Maturity      4906   0.71  23.5   64  1.3  0.00  0.00  0.00  0.00    10
  9 NOV  108 Harvest       4906   0.71  23.5   64  1.3  0.00  0.00  0.00  0.00    10


*MAIN GROWTH AND DEVELOPMENT VARIABLES

@     VARIABLE                                         SIMULATED     MEASURED
      --------                                         ---------     --------
      Anthesis day (dap)                                      55          -99
      Physiological maturity day (dap)                       108          -99
      Yield at harvest maturity (kg [dm]/ha)                2403          -99
      Number at maturity (no/m2)                             777          -99
      Unit wt at maturity (g [dm]/unit)                   0.3094          -99
      Number at maturity (no/unit)                         129.6          -99
      Tops weight at maturity (kg [dm]/ha)                  4906          -99
      By-product produced (stalk) at maturity (kg[dm]/ha    2541          -99
      Leaf area index, maximum                              1.64          -99
      Harvest index at maturity                            0.490          -99
      Grain N at maturity (kg/ha)                             41          -99
      Tops N at maturity (kg/ha)                              64          -99
      Stem N at maturity (kg/ha)                              22          -99
      Grain N at maturity (%)                                1.7          -99
      Tops weight at anthesis (kg [dm]/ha)                  2240          -99
      Tops N at anthesis (kg/ha)                              58          -99
      Leaf number per stem at maturity                     23.50          -99
      Emergence day (dap)                                      5          -99


*ENVIRONMENTAL AND STRESS FACTORS

 |-----Development Phase------|--------------------------------------Environment--------------------------------------|-----------------Stress-----------------|
                              |---------------Average--------------|-----Cumulative-----|--------Count of days--------|          (0=Min, 1=Max Stress)         |
                         Time  Temp  Temp  Temp Solar Photop                Evapo    Pot TMIN TMIN TMAX TMAX TMAX RAIN|----Water----|---Nitrogen--|-Phosphorus-|
                         Span   Max   Min  Mean   Rad  [day]    CO2   Rain  Trans     ET   <    <    >    >    >    >   Photo         Photo         Photo
                         days    邂    邂    邂 MJ/m2     hr    ppm     mm     mm     mm  0邂  2邂 30邂 32邂 34邂  0mm  synth Growth  synth Growth  synth Growth
----------------------------------------------------------------------------------------------------------------------------------------------------------------
 Emergence-End Juvenile    11  35.1  21.5  28.3  20.2  24.00  347.2    0.0    5.1   65.6    0    0   11   11   10    0  0.000  0.044  0.002  0.006  0.000  0.000
 End Juvenil-Floral Init    7  35.0  21.9  28.4  17.7  24.00  347.2    0.0    8.8   36.8    0    0    7    6    5    0  0.052  0.180  0.112  0.261  0.000  0.000
 Floral Init-End Lf Grow   32  34.9  22.7  28.8  20.5  20.06  347.3   48.3   67.2  186.2    0    0   32   27   19    9  0.568  0.629  0.022  0.039  0.000  0.000
 End Lf Grth-Beg Grn Fil    8  35.2  24.3  29.8  19.8  12.09  347.4   74.6   15.6   46.2    0    0    8    8    6    6  0.647  0.682  0.000  0.000  0.000  0.000
 Grain Filling Phase       42  30.3  21.1  25.7  17.6   3.12  347.5  272.4  181.2  196.4    0    0   22    4    1   30  0.000  0.000  0.000  0.000  0.000  0.000


 Planting to Harvest      108  33.0  22.0  27.5  18.9  13.17  347.4  395.7  289.1  572.4    0    0   86   61   45   46  0.220  0.253  0.014  0.029  0.000  0.000
----------------------------------------------------------------------------------------------------------------------------------------------------------------


*Resource Productivity
 Growing season length: 108 days 

 Precipitation during growing season       395.7 mm[rain]
   Dry Matter Productivity                  1.24 kg[DM]/m3[rain]          =   12.4 kg[DM]/ha per mm[rain]
   Yield Productivity                       0.61 kg[grain yield]/m3[rain] =    6.1 kg[yield]/ha per mm[rain]

 Evapotranspiration during growing season  289.1 mm[ET]
   Dry Matter Productivity                  1.70 kg[DM]/m3[ET]            =   17.0 kg[DM]/ha per mm[ET]
   Yield Productivity                       0.83 kg[grain yield]/m3[ET]   =    8.3 kg[yield]/ha per mm[ET]

 Transpiration during growing season       137.9 mm[EP]
   Dry Matter Productivity                  3.56 kg[DM]/m3[EP]            =   35.6 kg[DM]/ha per mm[EP]
   Yield Productivity                       1.74 kg[grain yield]/m3[EP]   =   17.4 kg[yield]/ha per mm[EP]

 N applied during growing season            162. kg[N applied]/ha
   Dry Matter Productivity                  30.3 kg[DM]/kg[N applied]
   Yield Productivity                       14.8 kg[yield]/kg[N applied]

 N uptake during growing season               77 kg[N uptake]/ha
   Dry Matter Productivity                  63.7 kg[DM]/kg[N uptake]
   Yield Productivity                       31.2 kg[yield]/kg[N uptake]

--------------------------------------------------------------------------------------------------------------

                     Maize YIELD :     2403 kg/ha    [Dry weight] 

**************************************************************************************************************

*DSSAT Cropping System Model Ver. 4.6.1.000 -release      OCT 24, 2017; 10:59:44
                                                                                
*RUN   4        : P07/29                    MZCER046 ANES1986    4              
 MODEL          : MZCER046 - Maize                                              
 EXPERIMENT     : ANES1986 MZ  Analisis a침os de bajo rendimiento Espinal       
 DATA PATH      : C:\DSSAT46\maize\                                             
 TREATMENT  4   : P07/29                    MZCER046                            
                                                                                
                                                                                
 CROP           : Maize            CULTIVAR : DK7088           ECOTYPE :IB0001  
 STARTING DATE  : JUN 29 1986                                                   
 PLANTING DATE  : JUL 29 1986        PLANTS/m2 :  6.2     ROW SPACING :  80.cm  
 WEATHER        : CNAT   1986                                                   
 SOIL           : CCESPI2017     TEXTURE : SL    -   Suelo Espinal Calibraci    
 SOIL INITIAL C : DEPTH:100cm EXTR. H2O: 83.6mm  NO3:  0.0kg/ha  NH4:  0.0kg/ha 
 WATER BALANCE  : RAINFED                                                       
 IRRIGATION     : NOT IRRIGATED                                                 
 NITROGEN BAL.  : SOIL-N & N-UPTAKE SIMULATION; NO N-FIXATION                   
 N-FERTILIZER   :      162 kg/ha IN     6 APPLICATIONS                          
 RESIDUE/MANURE : INITIAL :     0 kg/ha ;       0 kg/ha IN     0 APPLICATIONS   
 ENVIRONM. OPT. : DAYL=    0.00  SRAD=    0.00  TMAX=    0.00  TMIN=    0.00    
                  RAIN=    0.00  CO2 =    0.00  DEW =    0.00  WIND=    0.00    
 SIMULATION OPT : WATER   :Y  NITROGEN:Y  N-FIX:N  PHOSPH :N  PESTS  :N         
                  PHOTO   :C  ET      :R  INFIL:S  HYDROL :R  SOM    :G         
                  CO2 347ppm  NSWIT   :1  EVAP :S  SOIL   :2  STEMP  :D         
 MANAGEMENT OPT : PLANTING:R  IRRIG   :N  FERT :D  RESIDUE:R  HARVEST:M         
                  WEATHER :M  TILLAGE :N                                        
                                                                                
*SUMMARY OF SOIL AND GENETIC INPUT PARAMETERS                                   
                                                                                
   SOIL LOWER UPPER   SAT  EXTR  INIT   ROOT   BULK     pH    NO3    NH4    ORG 
  DEPTH LIMIT LIMIT    SW    SW    SW   DIST   DENS                          C  
   cm   cm3/cm3    cm3/cm3    cm3/cm3         g/cm3         ugN/g  ugN/g     %  
------------------------------------------------------------------------------- 
  0-  5 0.160 0.252 0.376 0.092 0.252   1.00   1.69   6.60   0.00   0.00   0.45 
  5- 15 0.160 0.252 0.376 0.092 0.252   1.00   1.69   6.60   0.00   0.00   0.45 
 15- 30 0.160 0.252 0.376 0.092 0.252   1.00   1.69   6.60   0.00   0.00   0.45 
 30- 53 0.120 0.200 0.440 0.080 0.200   0.27   1.40   7.10   0.00   0.00   0.17 
 53- 77 0.120 0.200 0.440 0.080 0.200   0.27   1.40   7.10   0.00   0.00   0.17 
 77-100 0.120 0.200 0.440 0.080 0.200   0.27   1.40   7.10   0.00   0.00   0.17 
                                                                                
TOT-100  13.2  21.6  42.1   8.4  21.6  <--cm   -  kg/ha-->    0.0    0.0  39475 
SOIL ALBEDO    : 0.09      EVAPORATION LIMIT : 6.00         MIN. FACTOR  : 1.00 
RUNOFF CURVE # :76.00      DRAINAGE RATE     : 0.60         FERT. FACTOR : 1.00 
                                                                                
 Maize      CULTIVAR :CI0004-DK7088             ECOTYPE :IB0001                 
 P1     : 229.00  P2     : 0.3000  P5     : 971.00                              
 G2     : 957.00  G3     :  7.500  PHINT  : 45.000                              


*SIMULATED CROP AND SOIL STATUS AT MAIN DEVELOPMENT STAGES

 RUN NO.     4     P07/29                  

        CROP GROWTH     BIOMASS         LEAF   CROP N     STRESS      STRESS                                           
   DATE  AGE STAGE        kg/ha    LAI   NUM  kg/ha  %   H2O  Nitr Phos1 Phos2  RSTG                                   
 ------  --- ----------   -----  -----  ----  ---  ---  ----  ----  ----  ----  ----                                   
 29 JUN    0 Start Sim        0   0.00   0.0    0  0.0  0.00  0.00  0.00  0.00     7
 29 JUL    0 Sowing           0   0.00   0.0    0  0.0  0.00  0.00  0.00  0.00     8
 30 JUL    1 Germinate        0   0.00   0.0    0  0.0  0.00  0.00  0.00  0.00     9
  3 AUG    5 Emergence       25   0.00   2.2    1  4.4  0.00  0.01  0.00  0.00     1
 13 AUG   15 End Juveni     130   0.27   7.7    4  3.3  0.05  0.00  0.00  0.00     2
 20 AUG   22 Floral Ini     451   0.77  10.8   16  3.6  0.11  0.05  0.00  0.00     3
 19 SEP   52 75% Silkin    1841   0.78  22.3   49  2.6  0.72  0.00  0.00  0.00     4
 28 SEP   61 Beg Gr Fil    2364   0.69  22.3   49  2.1  0.30  0.00  0.00  0.00     5
  9 NOV  103 End Gr Fil    5501   0.69  22.3   73  1.3  0.00  0.00  0.00  0.00     6
 11 NOV  105 Maturity      5501   0.69  22.3   73  1.3  0.00  0.00  0.00  0.00    10
 11 NOV  105 Harvest       5501   0.69  22.3   73  1.3  0.00  0.00  0.00  0.00    10


*MAIN GROWTH AND DEVELOPMENT VARIABLES

@     VARIABLE                                         SIMULATED     MEASURED
      --------                                         ---------     --------
      Anthesis day (dap)                                      52          -99
      Physiological maturity day (dap)                       105          -99
      Yield at harvest maturity (kg [dm]/ha)                3215          -99
      Number at maturity (no/m2)                            1035          -99
      Unit wt at maturity (g [dm]/unit)                   0.3105          -99
      Number at maturity (no/unit)                         167.0          -99
      Tops weight at maturity (kg [dm]/ha)                  5501          -99
      By-product produced (stalk) at maturity (kg[dm]/ha    2321          -99
      Leaf area index, maximum                              1.44          -99
      Harvest index at maturity                            0.584          -99
      Grain N at maturity (kg/ha)                             55          -99
      Tops N at maturity (kg/ha)                              73          -99
      Stem N at maturity (kg/ha)                              18          -99
      Grain N at maturity (%)                                1.7          -99
      Tops weight at anthesis (kg [dm]/ha)                  1840          -99
      Tops N at anthesis (kg/ha)                              49          -99
      Leaf number per stem at maturity                     22.30          -99
      Emergence day (dap)                                      5          -99


*ENVIRONMENTAL AND STRESS FACTORS

 |-----Development Phase------|--------------------------------------Environment--------------------------------------|-----------------Stress-----------------|
                              |---------------Average--------------|-----Cumulative-----|--------Count of days--------|          (0=Min, 1=Max Stress)         |
                         Time  Temp  Temp  Temp Solar Photop                Evapo    Pot TMIN TMIN TMAX TMAX TMAX RAIN|----Water----|---Nitrogen--|-Phosphorus-|
                         Span   Max   Min  Mean   Rad  [day]    CO2   Rain  Trans     ET   <    <    >    >    >    >   Photo         Photo         Photo
                         days    邂    邂    邂 MJ/m2     hr    ppm     mm     mm     mm  0邂  2邂 30邂 32邂 34邂  0mm  synth Growth  synth Growth  synth Growth
----------------------------------------------------------------------------------------------------------------------------------------------------------------
 Emergence-End Juvenile    10  36.0  22.3  29.2  19.9  24.00  347.2    0.0    4.1   61.4    0    0   10   10   10    0  0.000  0.055  0.002  0.005  0.000  0.000
 End Juvenil-Floral Init    7  33.1  21.5  27.3  17.7  24.00  347.3   19.6   13.8   34.6    0    0    7    4    2    3  0.039  0.113  0.019  0.048  0.000  0.000
 Floral Init-End Lf Grow   30  35.3  23.1  29.2  20.9  19.08  347.3   29.1   58.2  180.6    0    0   30   27   20    7  0.630  0.687  0.000  0.000  0.000  0.000
 End Lf Grth-Beg Grn Fil    9  33.2  23.0  28.1  17.8  11.23  347.4   96.6   26.7   44.9    0    0    8    7    4    7  0.376  0.399  0.000  0.000  0.000  0.000
 Grain Filling Phase       42  30.3  21.2  25.7  17.5   2.39  347.5  250.4  175.9  195.9    0    0   21    3    1   29  0.000  0.000  0.000  0.000  0.000  0.000


 Planting to Harvest      105  32.9  22.0  27.5  18.9  12.40  347.4  395.7  285.5  556.2    0    0   83   56   41   46  0.215  0.243  0.001  0.004  0.000  0.000
----------------------------------------------------------------------------------------------------------------------------------------------------------------


*Resource Productivity
 Growing season length: 105 days 

 Precipitation during growing season       395.7 mm[rain]
   Dry Matter Productivity                  1.39 kg[DM]/m3[rain]          =   13.9 kg[DM]/ha per mm[rain]
   Yield Productivity                       0.81 kg[grain yield]/m3[rain] =    8.1 kg[yield]/ha per mm[rain]

 Evapotranspiration during growing season  285.5 mm[ET]
   Dry Matter Productivity                  1.93 kg[DM]/m3[ET]            =   19.3 kg[DM]/ha per mm[ET]
   Yield Productivity                       1.13 kg[grain yield]/m3[ET]   =   11.3 kg[yield]/ha per mm[ET]

 Transpiration during growing season       132.5 mm[EP]
   Dry Matter Productivity                  4.15 kg[DM]/m3[EP]            =   41.5 kg[DM]/ha per mm[EP]
   Yield Productivity                       2.43 kg[grain yield]/m3[EP]   =   24.3 kg[yield]/ha per mm[EP]

 N applied during growing season            162. kg[N applied]/ha
   Dry Matter Productivity                  34.0 kg[DM]/kg[N applied]
   Yield Productivity                       19.8 kg[yield]/kg[N applied]

 N uptake during growing season               84 kg[N uptake]/ha
   Dry Matter Productivity                  65.5 kg[DM]/kg[N uptake]
   Yield Productivity                       38.3 kg[yield]/kg[N uptake]

--------------------------------------------------------------------------------------------------------------

                     Maize YIELD :     3215 kg/ha    [Dry weight] 

**************************************************************************************************************

*DSSAT Cropping System Model Ver. 4.6.1.000 -release      OCT 24, 2017; 10:59:44
                                                                                
*RUN   5        : P08/03                    MZCER046 ANES1986    5              
 MODEL          : MZCER046 - Maize                                              
 EXPERIMENT     : ANES1986 MZ  Analisis a침os de bajo rendimiento Espinal       
 DATA PATH      : C:\DSSAT46\maize\                                             
 TREATMENT  5   : P08/03                    MZCER046                            
                                                                                
                                                                                
 CROP           : Maize            CULTIVAR : DK7088           ECOTYPE :IB0001  
 STARTING DATE  : JUL  4 1986                                                   
 PLANTING DATE  : AUG  3 1986        PLANTS/m2 :  6.2     ROW SPACING :  80.cm  
 WEATHER        : CNAT   1986                                                   
 SOIL           : CCESPI2017     TEXTURE : SL    -   Suelo Espinal Calibraci    
 SOIL INITIAL C : DEPTH:100cm EXTR. H2O: 83.6mm  NO3:  0.0kg/ha  NH4:  0.0kg/ha 
 WATER BALANCE  : RAINFED                                                       
 IRRIGATION     : NOT IRRIGATED                                                 
 NITROGEN BAL.  : SOIL-N & N-UPTAKE SIMULATION; NO N-FIXATION                   
 N-FERTILIZER   :      162 kg/ha IN     6 APPLICATIONS                          
 RESIDUE/MANURE : INITIAL :     0 kg/ha ;       0 kg/ha IN     0 APPLICATIONS   
 ENVIRONM. OPT. : DAYL=    0.00  SRAD=    0.00  TMAX=    0.00  TMIN=    0.00    
                  RAIN=    0.00  CO2 =    0.00  DEW =    0.00  WIND=    0.00    
 SIMULATION OPT : WATER   :Y  NITROGEN:Y  N-FIX:N  PHOSPH :N  PESTS  :N         
                  PHOTO   :C  ET      :R  INFIL:S  HYDROL :R  SOM    :G         
                  CO2 347ppm  NSWIT   :1  EVAP :S  SOIL   :2  STEMP  :D         
 MANAGEMENT OPT : PLANTING:R  IRRIG   :N  FERT :D  RESIDUE:R  HARVEST:M         
                  WEATHER :M  TILLAGE :N                                        
                                                                                
*SUMMARY OF SOIL AND GENETIC INPUT PARAMETERS                                   
                                                                                
   SOIL LOWER UPPER   SAT  EXTR  INIT   ROOT   BULK     pH    NO3    NH4    ORG 
  DEPTH LIMIT LIMIT    SW    SW    SW   DIST   DENS                          C  
   cm   cm3/cm3    cm3/cm3    cm3/cm3         g/cm3         ugN/g  ugN/g     %  
------------------------------------------------------------------------------- 
  0-  5 0.160 0.252 0.376 0.092 0.252   1.00   1.69   6.60   0.00   0.00   0.45 
  5- 15 0.160 0.252 0.376 0.092 0.252   1.00   1.69   6.60   0.00   0.00   0.45 
 15- 30 0.160 0.252 0.376 0.092 0.252   1.00   1.69   6.60   0.00   0.00   0.45 
 30- 53 0.120 0.200 0.440 0.080 0.200   0.27   1.40   7.10   0.00   0.00   0.17 
 53- 77 0.120 0.200 0.440 0.080 0.200   0.27   1.40   7.10   0.00   0.00   0.17 
 77-100 0.120 0.200 0.440 0.080 0.200   0.27   1.40   7.10   0.00   0.00   0.17 
                                                                                
TOT-100  13.2  21.6  42.1   8.4  21.6  <--cm   -  kg/ha-->    0.0    0.0  39475 
SOIL ALBEDO    : 0.09      EVAPORATION LIMIT : 6.00         MIN. FACTOR  : 1.00 
RUNOFF CURVE # :76.00      DRAINAGE RATE     : 0.60         FERT. FACTOR : 1.00 
                                                                                
 Maize      CULTIVAR :CI0004-DK7088             ECOTYPE :IB0001                 
 P1     : 229.00  P2     : 0.3000  P5     : 971.00                              
 G2     : 957.00  G3     :  7.500  PHINT  : 45.000                              


*SIMULATED CROP AND SOIL STATUS AT MAIN DEVELOPMENT STAGES

 RUN NO.     5     P08/03                  

        CROP GROWTH     BIOMASS         LEAF   CROP N     STRESS      STRESS                                           
   DATE  AGE STAGE        kg/ha    LAI   NUM  kg/ha  %   H2O  Nitr Phos1 Phos2  RSTG                                   
 ------  --- ----------   -----  -----  ----  ---  ---  ----  ----  ----  ----  ----                                   
  4 JUL    0 Start Sim        0   0.00   0.0    0  0.0  0.00  0.00  0.00  0.00     7
  3 AUG    0 Sowing           0   0.00   0.0    0  0.0  0.00  0.00  0.00  0.00     8
  4 AUG    1 Germinate        0   0.00   0.0    0  0.0  0.00  0.00  0.00  0.00     9
  8 AUG    5 Emergence       25   0.00   2.2    1  4.4  0.00  0.01  0.00  0.00     1
 19 AUG   16 End Juveni     146   0.30   7.9    5  3.2  0.04  0.00  0.00  0.00     2
 25 AUG   22 Floral Ini     481   0.81  10.6   17  3.6  0.00  0.00  0.00  0.00     3
 24 SEP   52 75% Silkin    1955   0.80  21.9   42  2.1  0.69  0.00  0.00  0.00     4
  3 OCT   61 Beg Gr Fil    2884   0.80  21.9   42  1.4  0.00  0.00  0.00  0.00     5
 14 NOV  103 End Gr Fil    7644   0.74  21.9  103  1.3  0.00  0.00  0.00  0.00     6
 16 NOV  105 Maturity      7644   0.74  21.9  103  1.3  0.00  0.00  0.00  0.00    10
 16 NOV  105 Harvest       7644   0.74  21.9  103  1.3  0.00  0.00  0.00  0.00    10


*MAIN GROWTH AND DEVELOPMENT VARIABLES

@     VARIABLE                                         SIMULATED     MEASURED
      --------                                         ---------     --------
      Anthesis day (dap)                                      52          -99
      Physiological maturity day (dap)                       105          -99
      Yield at harvest maturity (kg [dm]/ha)                4874          -99
      Number at maturity (no/m2)                            1581          -99
      Unit wt at maturity (g [dm]/unit)                   0.3083          -99
      Number at maturity (no/unit)                         255.0          -99
      Tops weight at maturity (kg [dm]/ha)                  7644          -99
      By-product produced (stalk) at maturity (kg[dm]/ha    2802          -99
      Leaf area index, maximum                              1.37          -99
      Harvest index at maturity                            0.638          -99
      Grain N at maturity (kg/ha)                             84          -99
      Tops N at maturity (kg/ha)                             103          -99
      Stem N at maturity (kg/ha)                              18          -99
      Grain N at maturity (%)                                1.7          -99
      Tops weight at anthesis (kg [dm]/ha)                  1805          -99
      Tops N at anthesis (kg/ha)                              41          -99
      Leaf number per stem at maturity                     21.91          -99
      Emergence day (dap)                                      5          -99


*ENVIRONMENTAL AND STRESS FACTORS

 |-----Development Phase------|--------------------------------------Environment--------------------------------------|-----------------Stress-----------------|
                              |---------------Average--------------|-----Cumulative-----|--------Count of days--------|          (0=Min, 1=Max Stress)         |
                         Time  Temp  Temp  Temp Solar Photop                Evapo    Pot TMIN TMIN TMAX TMAX TMAX RAIN|----Water----|---Nitrogen--|-Phosphorus-|
                         Span   Max   Min  Mean   Rad  [day]    CO2   Rain  Trans     ET   <    <    >    >    >    >   Photo         Photo         Photo
                         days    邂    邂    邂 MJ/m2     hr    ppm     mm     mm     mm  0邂  2邂 30邂 32邂 34邂  0mm  synth Growth  synth Growth  synth Growth
----------------------------------------------------------------------------------------------------------------------------------------------------------------
 Emergence-End Juvenile    11  34.4  21.5  28.0  17.8  24.00  347.2   19.1    9.3   58.9    0    0   11    8    6    2  0.000  0.039  0.002  0.004  0.000  0.000
 End Juvenil-Floral Init    6  33.8  22.0  27.9  21.4  24.00  347.3   11.6   22.1   36.9    0    0    6    5    3    4  0.000  0.000  0.001  0.002  0.000  0.000
 Floral Init-End Lf Grow   30  35.5  23.4  29.5  20.5  17.06  347.4   39.4   54.6  179.7    0    0   30   28   22    8  0.621  0.692  0.000  0.000  0.000  0.000
 End Lf Grth-Beg Grn Fil    9  30.5  20.9  25.7  17.0   9.48  347.4  107.4   40.7   40.7    0    0    5    3    1    6  0.000  0.000  0.000  0.000  0.000  0.000
 Grain Filling Phase       42  30.5  21.5  26.0  17.7   1.35  347.5  218.2  171.2  196.5    0    0   24    4    0   26  0.000  0.000  0.000  0.000  0.000  0.000


 Planting to Harvest      105  32.8  22.1  27.5  18.8  11.26  347.4  395.7  304.5  555.0    0    0   83   55   37   46  0.177  0.202  0.000  0.001  0.000  0.000
----------------------------------------------------------------------------------------------------------------------------------------------------------------


*Resource Productivity
 Growing season length: 105 days 

 Precipitation during growing season       395.7 mm[rain]
   Dry Matter Productivity                  1.93 kg[DM]/m3[rain]          =   19.3 kg[DM]/ha per mm[rain]
   Yield Productivity                       1.23 kg[grain yield]/m3[rain] =   12.3 kg[yield]/ha per mm[rain]

 Evapotranspiration during growing season  304.5 mm[ET]
   Dry Matter Productivity                  2.51 kg[DM]/m3[ET]            =   25.1 kg[DM]/ha per mm[ET]
   Yield Productivity                       1.60 kg[grain yield]/m3[ET]   =   16.0 kg[yield]/ha per mm[ET]

 Transpiration during growing season       149.9 mm[EP]
   Dry Matter Productivity                  5.10 kg[DM]/m3[EP]            =   51.0 kg[DM]/ha per mm[EP]
   Yield Productivity                       3.25 kg[grain yield]/m3[EP]   =   32.5 kg[yield]/ha per mm[EP]

 N applied during growing season            162. kg[N applied]/ha
   Dry Matter Productivity                  47.2 kg[DM]/kg[N applied]
   Yield Productivity                       30.1 kg[yield]/kg[N applied]

 N uptake during growing season              111 kg[N uptake]/ha
   Dry Matter Productivity                  68.9 kg[DM]/kg[N uptake]
   Yield Productivity                       43.9 kg[yield]/kg[N uptake]

--------------------------------------------------------------------------------------------------------------

                     Maize YIELD :     4874 kg/ha    [Dry weight] 

**************************************************************************************************************

*DSSAT Cropping System Model Ver. 4.6.1.000 -release      OCT 24, 2017; 10:59:44
                                                                                
*RUN   6        : P08/08                    MZCER046 ANES1986    6              
 MODEL          : MZCER046 - Maize                                              
 EXPERIMENT     : ANES1986 MZ  Analisis a침os de bajo rendimiento Espinal       
 DATA PATH      : C:\DSSAT46\maize\                                             
 TREATMENT  6   : P08/08                    MZCER046                            
                                                                                
                                                                                
 CROP           : Maize            CULTIVAR : DK7088           ECOTYPE :IB0001  
 STARTING DATE  : JUL  9 1986                                                   
 PLANTING DATE  : AUG  8 1986        PLANTS/m2 :  6.2     ROW SPACING :  80.cm  
 WEATHER        : CNAT   1986                                                   
 SOIL           : CCESPI2017     TEXTURE : SL    -   Suelo Espinal Calibraci    
 SOIL INITIAL C : DEPTH:100cm EXTR. H2O: 83.6mm  NO3:  0.0kg/ha  NH4:  0.0kg/ha 
 WATER BALANCE  : RAINFED                                                       
 IRRIGATION     : NOT IRRIGATED                                                 
 NITROGEN BAL.  : SOIL-N & N-UPTAKE SIMULATION; NO N-FIXATION                   
 N-FERTILIZER   :      162 kg/ha IN     6 APPLICATIONS                          
 RESIDUE/MANURE : INITIAL :     0 kg/ha ;       0 kg/ha IN     0 APPLICATIONS   
 ENVIRONM. OPT. : DAYL=    0.00  SRAD=    0.00  TMAX=    0.00  TMIN=    0.00    
                  RAIN=    0.00  CO2 =    0.00  DEW =    0.00  WIND=    0.00    
 SIMULATION OPT : WATER   :Y  NITROGEN:Y  N-FIX:N  PHOSPH :N  PESTS  :N         
                  PHOTO   :C  ET      :R  INFIL:S  HYDROL :R  SOM    :G         
                  CO2 347ppm  NSWIT   :1  EVAP :S  SOIL   :2  STEMP  :D         
 MANAGEMENT OPT : PLANTING:R  IRRIG   :N  FERT :D  RESIDUE:R  HARVEST:M         
                  WEATHER :M  TILLAGE :N                                        
                                                                                
*SUMMARY OF SOIL AND GENETIC INPUT PARAMETERS                                   
                                                                                
   SOIL LOWER UPPER   SAT  EXTR  INIT   ROOT   BULK     pH    NO3    NH4    ORG 
  DEPTH LIMIT LIMIT    SW    SW    SW   DIST   DENS                          C  
   cm   cm3/cm3    cm3/cm3    cm3/cm3         g/cm3         ugN/g  ugN/g     %  
------------------------------------------------------------------------------- 
  0-  5 0.160 0.252 0.376 0.092 0.252   1.00   1.69   6.60   0.00   0.00   0.45 
  5- 15 0.160 0.252 0.376 0.092 0.252   1.00   1.69   6.60   0.00   0.00   0.45 
 15- 30 0.160 0.252 0.376 0.092 0.252   1.00   1.69   6.60   0.00   0.00   0.45 
 30- 53 0.120 0.200 0.440 0.080 0.200   0.27   1.40   7.10   0.00   0.00   0.17 
 53- 77 0.120 0.200 0.440 0.080 0.200   0.27   1.40   7.10   0.00   0.00   0.17 
 77-100 0.120 0.200 0.440 0.080 0.200   0.27   1.40   7.10   0.00   0.00   0.17 
                                                                                
TOT-100  13.2  21.6  42.1   8.4  21.6  <--cm   -  kg/ha-->    0.0    0.0  39475 
SOIL ALBEDO    : 0.09      EVAPORATION LIMIT : 6.00         MIN. FACTOR  : 1.00 
RUNOFF CURVE # :76.00      DRAINAGE RATE     : 0.60         FERT. FACTOR : 1.00 
                                                                                
 Maize      CULTIVAR :CI0004-DK7088             ECOTYPE :IB0001                 
 P1     : 229.00  P2     : 0.3000  P5     : 971.00                              
 G2     : 957.00  G3     :  7.500  PHINT  : 45.000                              


*SIMULATED CROP AND SOIL STATUS AT MAIN DEVELOPMENT STAGES

 RUN NO.     6     P08/08                  

        CROP GROWTH     BIOMASS         LEAF   CROP N     STRESS      STRESS                                           
   DATE  AGE STAGE        kg/ha    LAI   NUM  kg/ha  %   H2O  Nitr Phos1 Phos2  RSTG                                   
 ------  --- ----------   -----  -----  ----  ---  ---  ----  ----  ----  ----  ----                                   
  9 JUL    0 Start Sim        0   0.00   0.0    0  0.0  0.00  0.00  0.00  0.00     7
  8 AUG    0 Sowing           0   0.00   0.0    0  0.0  0.00  0.00  0.00  0.00     8
  9 AUG    1 Germinate        0   0.00   0.0    0  0.0  0.00  0.00  0.00  0.00     9
 13 AUG    5 Emergence       25   0.00   2.1    1  4.4  0.00  0.01  0.00  0.00     1
 24 AUG   16 End Juveni     140   0.29   7.7    5  3.2  0.00  0.00  0.00  0.00     2
 29 AUG   21 Floral Ini     417   0.72  10.2   15  3.7  0.00  0.00  0.00  0.00     3
 27 SEP   50 75% Silkin    1736   0.78  21.1   36  2.1  0.65  0.00  0.00  0.00     4
  6 OCT   59 Beg Gr Fil    2742   0.78  21.1   37  1.4  0.00  0.00  0.00  0.00     5
 17 NOV  101 End Gr Fil    7345   0.63  21.1   98  1.3  0.00  0.00  0.00  0.00     6
 19 NOV  103 Maturity      7345   0.63  21.1   98  1.3  0.00  0.00  0.00  0.00    10
 19 NOV  103 Harvest       7345   0.63  21.1   98  1.3  0.00  0.00  0.00  0.00    10


*MAIN GROWTH AND DEVELOPMENT VARIABLES

@     VARIABLE                                         SIMULATED     MEASURED
      --------                                         ---------     --------
      Anthesis day (dap)                                      50          -99
      Physiological maturity day (dap)                       103          -99
      Yield at harvest maturity (kg [dm]/ha)                4704          -99
      Number at maturity (no/m2)                            1543          -99
      Unit wt at maturity (g [dm]/unit)                   0.3048          -99
      Number at maturity (no/unit)                         248.9          -99
      Tops weight at maturity (kg [dm]/ha)                  7345          -99
      By-product produced (stalk) at maturity (kg[dm]/ha    2668          -99
      Leaf area index, maximum                              1.19          -99
      Harvest index at maturity                            0.640          -99
      Grain N at maturity (kg/ha)                             81          -99
      Tops N at maturity (kg/ha)                              98          -99
      Stem N at maturity (kg/ha)                              17          -99
      Grain N at maturity (%)                                1.7          -99
      Tops weight at anthesis (kg [dm]/ha)                  1678          -99
      Tops N at anthesis (kg/ha)                              36          -99
      Leaf number per stem at maturity                     21.08          -99
      Emergence day (dap)                                      5          -99


*ENVIRONMENTAL AND STRESS FACTORS

 |-----Development Phase------|--------------------------------------Environment--------------------------------------|-----------------Stress-----------------|
                              |---------------Average--------------|-----Cumulative-----|--------Count of days--------|          (0=Min, 1=Max Stress)         |
                         Time  Temp  Temp  Temp Solar Photop                Evapo    Pot TMIN TMIN TMAX TMAX TMAX RAIN|----Water----|---Nitrogen--|-Phosphorus-|
                         Span   Max   Min  Mean   Rad  [day]    CO2   Rain  Trans     ET   <    <    >    >    >    >   Photo         Photo         Photo
                         days    邂    邂    邂 MJ/m2     hr    ppm     mm     mm     mm  0邂  2邂 30邂 32邂 34邂  0mm  synth Growth  synth Growth  synth Growth
----------------------------------------------------------------------------------------------------------------------------------------------------------------
 Emergence-End Juvenile    11  33.1  21.9  27.5  18.4  24.00  347.3   30.3   22.6   59.4    0    0   11    7    3    5  0.000  0.000  0.002  0.005  0.000  0.000
 End Juvenil-Floral Init    5  34.9  22.2  28.6  22.7  24.00  347.3    7.4   16.1   33.7    0    0    5    5    3    2  0.000  0.000  0.001  0.002  0.000  0.000
 Floral Init-End Lf Grow   29  35.3  23.3  29.3  20.1  15.43  347.4   97.0   55.2  171.6    0    0   29   26   20    9  0.585  0.648  0.000  0.000  0.000  0.000
 End Lf Grth-Beg Grn Fil    9  29.8  20.8  25.3  16.9   8.37  347.4   92.7   40.2   40.2    0    0    4    1    1    7  0.000  0.000  0.000  0.000  0.000  0.000
 Grain Filling Phase       42  30.8  21.7  26.2  17.8   0.84  347.5  168.3  161.8  199.3    0    0   25    7    1   23  0.000  0.000  0.000  0.000  0.000  0.000


 Planting to Harvest      103  32.7  22.1  27.4  18.8  10.31  347.4  397.7  301.7  546.0    0    0   81   52   33   47  0.165  0.182  0.000  0.001  0.000  0.000
----------------------------------------------------------------------------------------------------------------------------------------------------------------


*Resource Productivity
 Growing season length: 103 days 

 Precipitation during growing season       397.7 mm[rain]
   Dry Matter Productivity                  1.85 kg[DM]/m3[rain]          =   18.5 kg[DM]/ha per mm[rain]
   Yield Productivity                       1.18 kg[grain yield]/m3[rain] =   11.8 kg[yield]/ha per mm[rain]

 Evapotranspiration during growing season  301.7 mm[ET]
   Dry Matter Productivity                  2.43 kg[DM]/m3[ET]            =   24.3 kg[DM]/ha per mm[ET]
   Yield Productivity                       1.56 kg[grain yield]/m3[ET]   =   15.6 kg[yield]/ha per mm[ET]

 Transpiration during growing season       141.9 mm[EP]
   Dry Matter Productivity                  5.18 kg[DM]/m3[EP]            =   51.8 kg[DM]/ha per mm[EP]
   Yield Productivity                       3.32 kg[grain yield]/m3[EP]   =   33.2 kg[yield]/ha per mm[EP]

 N applied during growing season            162. kg[N applied]/ha
   Dry Matter Productivity                  45.3 kg[DM]/kg[N applied]
   Yield Productivity                       29.0 kg[yield]/kg[N applied]

 N uptake during growing season              106 kg[N uptake]/ha
   Dry Matter Productivity                  69.3 kg[DM]/kg[N uptake]
   Yield Productivity                       44.4 kg[yield]/kg[N uptake]

--------------------------------------------------------------------------------------------------------------

                     Maize YIELD :     4704 kg/ha    [Dry weight] 

**************************************************************************************************************

*DSSAT Cropping System Model Ver. 4.6.1.000 -release      OCT 24, 2017; 10:59:44
                                                                                
*RUN   7        : P08/13                    MZCER046 ANES1986    7              
 MODEL          : MZCER046 - Maize                                              
 EXPERIMENT     : ANES1986 MZ  Analisis a침os de bajo rendimiento Espinal       
 DATA PATH      : C:\DSSAT46\maize\                                             
 TREATMENT  7   : P08/13                    MZCER046                            
                                                                                
                                                                                
 CROP           : Maize            CULTIVAR : DK7088           ECOTYPE :IB0001  
 STARTING DATE  : JUL 14 1986                                                   
 PLANTING DATE  : AUG 13 1986        PLANTS/m2 :  6.2     ROW SPACING :  80.cm  
 WEATHER        : CNAT   1986                                                   
 SOIL           : CCESPI2017     TEXTURE : SL    -   Suelo Espinal Calibraci    
 SOIL INITIAL C : DEPTH:100cm EXTR. H2O: 83.6mm  NO3:  0.0kg/ha  NH4:  0.0kg/ha 
 WATER BALANCE  : RAINFED                                                       
 IRRIGATION     : NOT IRRIGATED                                                 
 NITROGEN BAL.  : SOIL-N & N-UPTAKE SIMULATION; NO N-FIXATION                   
 N-FERTILIZER   :      162 kg/ha IN     6 APPLICATIONS                          
 RESIDUE/MANURE : INITIAL :     0 kg/ha ;       0 kg/ha IN     0 APPLICATIONS   
 ENVIRONM. OPT. : DAYL=    0.00  SRAD=    0.00  TMAX=    0.00  TMIN=    0.00    
                  RAIN=    0.00  CO2 =    0.00  DEW =    0.00  WIND=    0.00    
 SIMULATION OPT : WATER   :Y  NITROGEN:Y  N-FIX:N  PHOSPH :N  PESTS  :N         
                  PHOTO   :C  ET      :R  INFIL:S  HYDROL :R  SOM    :G         
                  CO2 347ppm  NSWIT   :1  EVAP :S  SOIL   :2  STEMP  :D         
 MANAGEMENT OPT : PLANTING:R  IRRIG   :N  FERT :D  RESIDUE:R  HARVEST:M         
                  WEATHER :M  TILLAGE :N                                        
                                                                                
*SUMMARY OF SOIL AND GENETIC INPUT PARAMETERS                                   
                                                                                
   SOIL LOWER UPPER   SAT  EXTR  INIT   ROOT   BULK     pH    NO3    NH4    ORG 
  DEPTH LIMIT LIMIT    SW    SW    SW   DIST   DENS                          C  
   cm   cm3/cm3    cm3/cm3    cm3/cm3         g/cm3         ugN/g  ugN/g     %  
------------------------------------------------------------------------------- 
  0-  5 0.160 0.252 0.376 0.092 0.252   1.00   1.69   6.60   0.00   0.00   0.45 
  5- 15 0.160 0.252 0.376 0.092 0.252   1.00   1.69   6.60   0.00   0.00   0.45 
 15- 30 0.160 0.252 0.376 0.092 0.252   1.00   1.69   6.60   0.00   0.00   0.45 
 30- 53 0.120 0.200 0.440 0.080 0.200   0.27   1.40   7.10   0.00   0.00   0.17 
 53- 77 0.120 0.200 0.440 0.080 0.200   0.27   1.40   7.10   0.00   0.00   0.17 
 77-100 0.120 0.200 0.440 0.080 0.200   0.27   1.40   7.10   0.00   0.00   0.17 
                                                                                
TOT-100  13.2  21.6  42.1   8.4  21.6  <--cm   -  kg/ha-->    0.0    0.0  39475 
SOIL ALBEDO    : 0.09      EVAPORATION LIMIT : 6.00         MIN. FACTOR  : 1.00 
RUNOFF CURVE # :76.00      DRAINAGE RATE     : 0.60         FERT. FACTOR : 1.00 
                                                                                
 Maize      CULTIVAR :CI0004-DK7088             ECOTYPE :IB0001                 
 P1     : 229.00  P2     : 0.3000  P5     : 971.00                              
 G2     : 957.00  G3     :  7.500  PHINT  : 45.000                              


*SIMULATED CROP AND SOIL STATUS AT MAIN DEVELOPMENT STAGES

 RUN NO.     7     P08/13                  

        CROP GROWTH     BIOMASS         LEAF   CROP N     STRESS      STRESS                                           
   DATE  AGE STAGE        kg/ha    LAI   NUM  kg/ha  %   H2O  Nitr Phos1 Phos2  RSTG                                   
 ------  --- ----------   -----  -----  ----  ---  ---  ----  ----  ----  ----  ----                                   
 14 JUL    0 Start Sim        0   0.00   0.0    0  0.0  0.00  0.00  0.00  0.00     7
 13 AUG    0 Sowing           0   0.00   0.0    0  0.0  0.00  0.00  0.00  0.00     8
 14 AUG    1 Germinate        0   0.00   0.0    0  0.0  0.00  0.00  0.00  0.00     9
 18 AUG    5 Emergence       25   0.00   2.1    1  4.4  0.00  0.01  0.00  0.00     1
 29 AUG   16 End Juveni     156   0.32   8.0    5  3.2  0.00  0.00  0.00  0.00     2
  3 SEP   21 Floral Ini     412   0.71  10.3   15  3.6  0.09  0.00  0.00  0.00     3
  3 OCT   51 75% Silkin    2268   0.95  21.1   46  2.0  0.51  0.00  0.00  0.00     4
 12 OCT   60 Beg Gr Fil    3480   0.95  21.1   47  1.3  0.00  0.00  0.00  0.00     5
 22 NOV  101 End Gr Fil    8723   0.62  21.1  115  1.3  0.00  0.00  0.00  0.00     6
 25 NOV  104 Maturity      8723   0.62  21.1  115  1.3  0.00  0.00  0.00  0.00    10
 25 NOV  104 Harvest       8723   0.62  21.1  115  1.3  0.00  0.00  0.00  0.00    10


*MAIN GROWTH AND DEVELOPMENT VARIABLES

@     VARIABLE                                         SIMULATED     MEASURED
      --------                                         ---------     --------
      Anthesis day (dap)                                      51          -99
      Physiological maturity day (dap)                       104          -99
      Yield at harvest maturity (kg [dm]/ha)                5379          -99
      Number at maturity (no/m2)                            1820          -99
      Unit wt at maturity (g [dm]/unit)                   0.2955          -99
      Number at maturity (no/unit)                         293.6          -99
      Tops weight at maturity (kg [dm]/ha)                  8723          -99
      By-product produced (stalk) at maturity (kg[dm]/ha    3370          -99
      Leaf area index, maximum                              0.95          -99
      Harvest index at maturity                            0.617          -99
      Grain N at maturity (kg/ha)                             93          -99
      Tops N at maturity (kg/ha)                             115          -99
      Stem N at maturity (kg/ha)                              21          -99
      Grain N at maturity (%)                                1.7          -99
      Tops weight at anthesis (kg [dm]/ha)                  2125          -99
      Tops N at anthesis (kg/ha)                              44          -99
      Leaf number per stem at maturity                     21.14          -99
      Emergence day (dap)                                      5          -99


*ENVIRONMENTAL AND STRESS FACTORS

 |-----Development Phase------|--------------------------------------Environment--------------------------------------|-----------------Stress-----------------|
                              |---------------Average--------------|-----Cumulative-----|--------Count of days--------|          (0=Min, 1=Max Stress)         |
                         Time  Temp  Temp  Temp Solar Photop                Evapo    Pot TMIN TMIN TMAX TMAX TMAX RAIN|----Water----|---Nitrogen--|-Phosphorus-|
                         Span   Max   Min  Mean   Rad  [day]    CO2   Rain  Trans     ET   <    <    >    >    >    >   Photo         Photo         Photo
                         days    邂    邂    邂 MJ/m2     hr    ppm     mm     mm     mm  0邂  2邂 30邂 32邂 34邂  0mm  synth Growth  synth Growth  synth Growth
----------------------------------------------------------------------------------------------------------------------------------------------------------------
 Emergence-End Juvenile    11  34.1  22.2  28.1  21.4  24.00  347.3   18.6   30.8   71.4    0    0   11    9    5    5  0.000  0.000  0.003  0.006  0.000  0.000
 End Juvenil-Floral Init    5  33.8  23.7  28.8  20.3  20.99  347.3    8.4   13.0   29.4    0    0    5    3    3    1  0.000  0.085  0.001  0.002  0.000  0.000
 Floral Init-End Lf Grow   30  34.4  22.7  28.5  19.3  13.21  347.4  131.4   70.6  169.4    0    0   26   24   18   12  0.468  0.512  0.000  0.000  0.000  0.000
 End Lf Grth-Beg Grn Fil    9  30.6  21.5  26.0  17.8   5.79  347.4   83.9   42.0   42.1    0    0    6    1    0    7  0.000  0.000  0.000  0.000  0.000  0.000
 Grain Filling Phase       41  30.9  21.8  26.4  18.2   0.11  347.6  136.3  154.0  196.9    0    0   26    8    1   20  0.000  0.000  0.000  0.000  0.000  0.000


 Planting to Harvest      104  32.5  22.2  27.3  18.8   9.06  347.5  419.7  320.7  546.8    0    0   81   49   29   48  0.135  0.152  0.000  0.001  0.000  0.000
----------------------------------------------------------------------------------------------------------------------------------------------------------------


*Resource Productivity
 Growing season length: 104 days 

 Precipitation during growing season       419.7 mm[rain]
   Dry Matter Productivity                  2.08 kg[DM]/m3[rain]          =   20.8 kg[DM]/ha per mm[rain]
   Yield Productivity                       1.28 kg[grain yield]/m3[rain] =   12.8 kg[yield]/ha per mm[rain]

 Evapotranspiration during growing season  320.7 mm[ET]
   Dry Matter Productivity                  2.72 kg[DM]/m3[ET]            =   27.2 kg[DM]/ha per mm[ET]
   Yield Productivity                       1.68 kg[grain yield]/m3[ET]   =   16.8 kg[yield]/ha per mm[ET]

 Transpiration during growing season       162.0 mm[EP]
   Dry Matter Productivity                  5.39 kg[DM]/m3[EP]            =   53.9 kg[DM]/ha per mm[EP]
   Yield Productivity                       3.32 kg[grain yield]/m3[EP]   =   33.2 kg[yield]/ha per mm[EP]

 N applied during growing season            162. kg[N applied]/ha
   Dry Matter Productivity                  53.8 kg[DM]/kg[N applied]
   Yield Productivity                       33.2 kg[yield]/kg[N applied]

 N uptake during growing season              123 kg[N uptake]/ha
   Dry Matter Productivity                  70.9 kg[DM]/kg[N uptake]
   Yield Productivity                       43.7 kg[yield]/kg[N uptake]

--------------------------------------------------------------------------------------------------------------

                     Maize YIELD :     5379 kg/ha    [Dry weight] 

**************************************************************************************************************

*DSSAT Cropping System Model Ver. 4.6.1.000 -release      OCT 24, 2017; 10:59:44
                                                                                
*RUN   8        : P08/18                    MZCER046 ANES1986    8              
 MODEL          : MZCER046 - Maize                                              
 EXPERIMENT     : ANES1986 MZ  Analisis a침os de bajo rendimiento Espinal       
 DATA PATH      : C:\DSSAT46\maize\                                             
 TREATMENT  8   : P08/18                    MZCER046                            
                                                                                
                                                                                
 CROP           : Maize            CULTIVAR : DK7088           ECOTYPE :IB0001  
 STARTING DATE  : JUL 19 1986                                                   
 PLANTING DATE  : AUG 18 1986        PLANTS/m2 :  6.2     ROW SPACING :  80.cm  
 WEATHER        : CNAT   1986                                                   
 SOIL           : CCESPI2017     TEXTURE : SL    -   Suelo Espinal Calibraci    
 SOIL INITIAL C : DEPTH:100cm EXTR. H2O: 83.6mm  NO3:  0.0kg/ha  NH4:  0.0kg/ha 
 WATER BALANCE  : RAINFED                                                       
 IRRIGATION     : NOT IRRIGATED                                                 
 NITROGEN BAL.  : SOIL-N & N-UPTAKE SIMULATION; NO N-FIXATION                   
 N-FERTILIZER   :      162 kg/ha IN     6 APPLICATIONS                          
 RESIDUE/MANURE : INITIAL :     0 kg/ha ;       0 kg/ha IN     0 APPLICATIONS   
 ENVIRONM. OPT. : DAYL=    0.00  SRAD=    0.00  TMAX=    0.00  TMIN=    0.00    
                  RAIN=    0.00  CO2 =    0.00  DEW =    0.00  WIND=    0.00    
 SIMULATION OPT : WATER   :Y  NITROGEN:Y  N-FIX:N  PHOSPH :N  PESTS  :N         
                  PHOTO   :C  ET      :R  INFIL:S  HYDROL :R  SOM    :G         
                  CO2 347ppm  NSWIT   :1  EVAP :S  SOIL   :2  STEMP  :D         
 MANAGEMENT OPT : PLANTING:R  IRRIG   :N  FERT :D  RESIDUE:R  HARVEST:M         
                  WEATHER :M  TILLAGE :N                                        
                                                                                
*SUMMARY OF SOIL AND GENETIC INPUT PARAMETERS                                   
                                                                                
   SOIL LOWER UPPER   SAT  EXTR  INIT   ROOT   BULK     pH    NO3    NH4    ORG 
  DEPTH LIMIT LIMIT    SW    SW    SW   DIST   DENS                          C  
   cm   cm3/cm3    cm3/cm3    cm3/cm3         g/cm3         ugN/g  ugN/g     %  
------------------------------------------------------------------------------- 
  0-  5 0.160 0.252 0.376 0.092 0.252   1.00   1.69   6.60   0.00   0.00   0.45 
  5- 15 0.160 0.252 0.376 0.092 0.252   1.00   1.69   6.60   0.00   0.00   0.45 
 15- 30 0.160 0.252 0.376 0.092 0.252   1.00   1.69   6.60   0.00   0.00   0.45 
 30- 53 0.120 0.200 0.440 0.080 0.200   0.27   1.40   7.10   0.00   0.00   0.17 
 53- 77 0.120 0.200 0.440 0.080 0.200   0.27   1.40   7.10   0.00   0.00   0.17 
 77-100 0.120 0.200 0.440 0.080 0.200   0.27   1.40   7.10   0.00   0.00   0.17 
                                                                                
TOT-100  13.2  21.6  42.1   8.4  21.6  <--cm   -  kg/ha-->    0.0    0.0  39475 
SOIL ALBEDO    : 0.09      EVAPORATION LIMIT : 6.00         MIN. FACTOR  : 1.00 
RUNOFF CURVE # :76.00      DRAINAGE RATE     : 0.60         FERT. FACTOR : 1.00 
                                                                                
 Maize      CULTIVAR :CI0004-DK7088             ECOTYPE :IB0001                 
 P1     : 229.00  P2     : 0.3000  P5     : 971.00                              
 G2     : 957.00  G3     :  7.500  PHINT  : 45.000                              


*SIMULATED CROP AND SOIL STATUS AT MAIN DEVELOPMENT STAGES

 RUN NO.     8     P08/18                  

        CROP GROWTH     BIOMASS         LEAF   CROP N     STRESS      STRESS                                           
   DATE  AGE STAGE        kg/ha    LAI   NUM  kg/ha  %   H2O  Nitr Phos1 Phos2  RSTG                                   
 ------  --- ----------   -----  -----  ----  ---  ---  ----  ----  ----  ----  ----                                   
 19 JUL    0 Start Sim        0   0.00   0.0    0  0.0  0.00  0.00  0.00  0.00     7
 18 AUG    0 Sowing           0   0.00   0.0    0  0.0  0.00  0.00  0.00  0.00     8
 19 AUG    1 Germinate        0   0.00   0.0    0  0.0  0.00  0.00  0.00  0.00     9
 23 AUG    5 Emergence       25   0.00   2.2    1  4.4  0.00  0.01  0.00  0.00     1
  3 SEP   16 End Juveni     160   0.33   8.1    5  3.3  0.03  0.00  0.00  0.00     2
  8 SEP   21 Floral Ini     355   0.60  10.5   14  3.9  0.30  0.00  0.00  0.00     3
  9 OCT   52 75% Silkin    2995   1.26  21.7   60  2.0  0.39  0.00  0.00  0.00     4
 18 OCT   61 Beg Gr Fil    4600   1.26  21.7   61  1.3  0.00  0.00  0.00  0.00     5
 28 NOV  102 End Gr Fil   10772   0.67  21.7  139  1.3  0.04  0.00  0.00  0.00     6
  1 DEC  105 Maturity     10772   0.67  21.7  139  1.3  0.03  0.00  0.00  0.00    10
  1 DEC  105 Harvest      10772   0.67  21.7  139  1.3  0.00  0.00  0.00  0.00    10


*MAIN GROWTH AND DEVELOPMENT VARIABLES

@     VARIABLE                                         SIMULATED     MEASURED
      --------                                         ---------     --------
      Anthesis day (dap)                                      52          -99
      Physiological maturity day (dap)                       105          -99
      Yield at harvest maturity (kg [dm]/ha)                6420          -99
      Number at maturity (no/m2)                            2217          -99
[...]
 WATER BALANCE  : RAINFED                                                       
 IRRIGATION     : NOT IRRIGATED                                                 
 NITROGEN BAL.  : SOIL-N & N-UPTAKE SIMULATION; NO N-FIXATION                   
 N-FERTILIZER   :      162 kg/ha IN     6 APPLICATIONS                          
 RESIDUE/MANURE : INITIAL :     0 kg/ha ;       0 kg/ha IN     0 APPLICATIONS   
 ENVIRONM. OPT. : DAYL=    0.00  SRAD=    0.00  TMAX=    0.00  TMIN=    0.00    
                  RAIN=    0.00  CO2 =    0.00  DEW =    0.00  WIND=    0.00    
 SIMULATION OPT : WATER   :Y  NITROGEN:Y  N-FIX:N  PHOSPH :N  PESTS  :N         
                  PHOTO   :C  ET      :R  INFIL:S  HYDROL :R  SOM    :G         
                  CO2 348ppm  NSWIT   :1  EVAP :S  SOIL   :2  STEMP  :D         
 MANAGEMENT OPT : PLANTING:R  IRRIG   :N  FERT :D  RESIDUE:R  HARVEST:M         
                  WEATHER :M  TILLAGE :N                                        
                                                                                
*SUMMARY OF SOIL AND GENETIC INPUT PARAMETERS                                   
                                                                                
   SOIL LOWER UPPER   SAT  EXTR  INIT   ROOT   BULK     pH    NO3    NH4    ORG 
  DEPTH LIMIT LIMIT    SW    SW    SW   DIST   DENS                          C  
   cm   cm3/cm3    cm3/cm3    cm3/cm3         g/cm3         ugN/g  ugN/g     %  
------------------------------------------------------------------------------- 
  0-  5 0.160 0.252 0.376 0.092 0.252   1.00   1.69   6.60   0.00   0.00   0.45 
  5- 15 0.160 0.252 0.376 0.092 0.252   1.00   1.69   6.60   0.00   0.00   0.45 
 15- 30 0.160 0.252 0.376 0.092 0.252   1.00   1.69   6.60   0.00   0.00   0.45 
 30- 53 0.120 0.200 0.440 0.080 0.200   0.27   1.40   7.10   0.00   0.00   0.17 
 53- 77 0.120 0.200 0.440 0.080 0.200   0.27   1.40   7.10   0.00   0.00   0.17 
 77-100 0.120 0.200 0.440 0.080 0.200   0.27   1.40   7.10   0.00   0.00   0.17 
                                                                                
TOT-100  13.2  21.6  42.1   8.4  21.6  <--cm   -  kg/ha-->    0.0    0.0  39475 
SOIL ALBEDO    : 0.09      EVAPORATION LIMIT : 6.00         MIN. FACTOR  : 1.00 
RUNOFF CURVE # :76.00      DRAINAGE RATE     : 0.60         FERT. FACTOR : 1.00 
                                                                                
 Maize      CULTIVAR :CI0004-DK7088             ECOTYPE :IB0001                 
 P1     : 229.00  P2     : 0.3000  P5     : 971.00                              
 G2     : 957.00  G3     :  7.500  PHINT  : 45.000                              


*SIMULATED CROP AND SOIL STATUS AT MAIN DEVELOPMENT STAGES

 RUN NO.    31     P11/26                  

        CROP GROWTH     BIOMASS         LEAF   CROP N     STRESS      STRESS                                           
   DATE  AGE STAGE        kg/ha    LAI   NUM  kg/ha  %   H2O  Nitr Phos1 Phos2  RSTG                                   
 ------  --- ----------   -----  -----  ----  ---  ---  ----  ----  ----  ----  ----                                   
 26 NOV    0 Start Sim        0   0.00   0.0    0  0.0  0.00  0.00  0.00  0.00     7
 26 DEC    0 Sowing           0   0.00   0.0    0  0.0  0.00  0.00  0.00  0.00     8
 27 DEC    1 Germinate        0   0.00   0.0    0  0.0  0.00  0.00  0.00  0.00     9
 31 DEC    5 Emergence       25   0.00   2.2    1  4.4  0.00  0.01  0.00  0.00     1
 11 JAN   16 End Juveni     137   0.29   7.7    4  3.0  0.01  0.00  0.00  0.00     2
 15 JAN   20 Floral Ini     269   0.48   9.7    5  1.9  0.00  0.30  0.00  0.00     3
 11 FEB   47 75% Silkin    1355   0.53  20.1   10  0.7  0.54  0.78  0.00  0.00     4
 20 FEB   56 Beg Gr Fil    1999   0.51  20.1   30  1.5  0.08  0.09  0.00  0.00     5
 28 MAR   92 End Gr Fil    4154   0.50  20.1   53  1.3  0.05  0.00  0.00  0.00     6
 30 MAR   94 Maturity      4154   0.50  20.1   53  1.3  0.21  0.00  0.00  0.00    10
 30 MAR   94 Harvest       4154   0.50  20.1   53  1.3  0.00  0.00  0.00  0.00    10


*MAIN GROWTH AND DEVELOPMENT VARIABLES

@     VARIABLE                                         SIMULATED     MEASURED
      --------                                         ---------     --------
      Anthesis day (dap)                                      47          -99
      Physiological maturity day (dap)                        94          -99
      Yield at harvest maturity (kg [dm]/ha)                2208          -99
      Number at maturity (no/m2)                            1127          -99
      Unit wt at maturity (g [dm]/unit)                   0.1958          -99
      Number at maturity (no/unit)                         181.8          -99
      Tops weight at maturity (kg [dm]/ha)                  4154          -99
      By-product produced (stalk) at maturity (kg[dm]/ha    1968          -99
      Leaf area index, maximum                              0.73          -99
      Harvest index at maturity                            0.531          -99
      Grain N at maturity (kg/ha)                             39          -99
      Tops N at maturity (kg/ha)                              53          -99
      Stem N at maturity (kg/ha)                              14          -99
      Grain N at maturity (%)                                1.8          -99
      Tops weight at anthesis (kg [dm]/ha)                  1335          -99
      Tops N at anthesis (kg/ha)                               9          -99
      Leaf number per stem at maturity                     20.14          -99
      Emergence day (dap)                                      5          -99


*ENVIRONMENTAL AND STRESS FACTORS

 |-----Development Phase------|--------------------------------------Environment--------------------------------------|-----------------Stress-----------------|
                              |---------------Average--------------|-----Cumulative-----|--------Count of days--------|          (0=Min, 1=Max Stress)         |
                         Time  Temp  Temp  Temp Solar Photop                Evapo    Pot TMIN TMIN TMAX TMAX TMAX RAIN|----Water----|---Nitrogen--|-Phosphorus-|
                         Span   Max   Min  Mean   Rad  [day]    CO2   Rain  Trans     ET   <    <    >    >    >    >   Photo         Photo         Photo
                         days    邂    邂    邂 MJ/m2     hr    ppm     mm     mm     mm  0邂  2邂 30邂 32邂 34邂  0mm  synth Growth  synth Growth  synth Growth
----------------------------------------------------------------------------------------------------------------------------------------------------------------
 Emergence-End Juvenile    11  32.2  23.1  27.6  19.0   0.00  347.8   36.2   26.9   60.7    0    0   10    6    0    3  0.000  0.007  0.002  0.006  0.000  0.000
 End Juvenil-Floral Init    4  33.9  22.9  28.4  21.4   0.00  347.8    0.0    6.6   24.2    0    0    4    4    2    0  0.000  0.000  0.071  0.177  0.000  0.000
 Floral Init-End Lf Grow   27  35.0  23.7  29.3  19.3   0.00  348.0    4.0   39.0  151.6    0    0   27   25   18    4  0.379  0.514  0.516  0.763  0.000  0.000
 End Lf Grth-Beg Grn Fil    9  33.0  23.1  28.1  17.8   0.00  348.1   79.5   25.8   45.3    0    0    7    7    3    3  0.134  0.164  0.135  0.187  0.000  0.000
 Grain Filling Phase       36  34.2  23.8  29.0  20.6   6.71  348.2   94.8  111.2  217.6    0    0   32   30   21   10  0.010  0.045  0.000  0.000  0.000  0.000


 Planting to Harvest       94  34.0  23.5  28.7  19.7   2.87  348.0  219.8  222.9  537.9    0    0   86   77   46   21  0.126  0.184  0.164  0.245  0.000  0.000
----------------------------------------------------------------------------------------------------------------------------------------------------------------


*Resource Productivity
 Growing season length:  94 days 

 Precipitation during growing season       219.8 mm[rain]
   Dry Matter Productivity                  1.89 kg[DM]/m3[rain]          =   18.9 kg[DM]/ha per mm[rain]
   Yield Productivity                       1.00 kg[grain yield]/m3[rain] =   10.0 kg[yield]/ha per mm[rain]

 Evapotranspiration during growing season  222.9 mm[ET]
   Dry Matter Productivity                  1.86 kg[DM]/m3[ET]            =   18.6 kg[DM]/ha per mm[ET]
   Yield Productivity                       0.99 kg[grain yield]/m3[ET]   =    9.9 kg[yield]/ha per mm[ET]

 Transpiration during growing season       117.5 mm[EP]
   Dry Matter Productivity                  3.53 kg[DM]/m3[EP]            =   35.3 kg[DM]/ha per mm[EP]
   Yield Productivity                       1.88 kg[grain yield]/m3[EP]   =   18.8 kg[yield]/ha per mm[EP]

 N applied during growing season            162. kg[N applied]/ha
   Dry Matter Productivity                  25.6 kg[DM]/kg[N applied]
   Yield Productivity                       13.6 kg[yield]/kg[N applied]

 N uptake during growing season               61 kg[N uptake]/ha
   Dry Matter Productivity                  68.1 kg[DM]/kg[N uptake]
   Yield Productivity                       36.2 kg[yield]/kg[N uptake]

--------------------------------------------------------------------------------------------------------------

                     Maize YIELD :     2208 kg/ha    [Dry weight] 

**************************************************************************************************************

*DSSAT Cropping System Model Ver. 4.6.1.000 -release      OCT 24, 2017; 10:59:57
                                                                                
*RUN  32        : P12/31                    MZCER046 ANES1986   32              
 MODEL          : MZCER046 - Maize                                              
 EXPERIMENT     : ANES1986 MZ  Analisis a침os de bajo rendimiento Espinal       
 DATA PATH      : C:\DSSAT46\maize\                                             
 TREATMENT 32   : P12/31                    MZCER046                            
                                                                                
                                                                                
 CROP           : Maize            CULTIVAR : DK7088           ECOTYPE :IB0001  
 STARTING DATE  : DEC  1 1986                                                   
 PLANTING DATE  : DEC 31 1986        PLANTS/m2 :  6.2     ROW SPACING :  80.cm  
 WEATHER        : CNAT   1986                                                   
 SOIL           : CCESPI2017     TEXTURE : SL    -   Suelo Espinal Calibraci    
 SOIL INITIAL C : DEPTH:100cm EXTR. H2O: 83.6mm  NO3:  0.0kg/ha  NH4:  0.0kg/ha 
 WATER BALANCE  : RAINFED                                                       
 IRRIGATION     : NOT IRRIGATED                                                 
 NITROGEN BAL.  : SOIL-N & N-UPTAKE SIMULATION; NO N-FIXATION                   
 N-FERTILIZER   :      162 kg/ha IN     6 APPLICATIONS                          
 RESIDUE/MANURE : INITIAL :     0 kg/ha ;       0 kg/ha IN     0 APPLICATIONS   
 ENVIRONM. OPT. : DAYL=    0.00  SRAD=    0.00  TMAX=    0.00  TMIN=    0.00    
                  RAIN=    0.00  CO2 =    0.00  DEW =    0.00  WIND=    0.00    
 SIMULATION OPT : WATER   :Y  NITROGEN:Y  N-FIX:N  PHOSPH :N  PESTS  :N         
                  PHOTO   :C  ET      :R  INFIL:S  HYDROL :R  SOM    :G         
                  CO2 348ppm  NSWIT   :1  EVAP :S  SOIL   :2  STEMP  :D         
 MANAGEMENT OPT : PLANTING:R  IRRIG   :N  FERT :D  RESIDUE:R  HARVEST:M         
                  WEATHER :M  TILLAGE :N                                        
                                                                                
*SUMMARY OF SOIL AND GENETIC INPUT PARAMETERS                                   
                                                                                
   SOIL LOWER UPPER   SAT  EXTR  INIT   ROOT   BULK     pH    NO3    NH4    ORG 
  DEPTH LIMIT LIMIT    SW    SW    SW   DIST   DENS                          C  
   cm   cm3/cm3    cm3/cm3    cm3/cm3         g/cm3         ugN/g  ugN/g     %  
------------------------------------------------------------------------------- 
  0-  5 0.160 0.252 0.376 0.092 0.252   1.00   1.69   6.60   0.00   0.00   0.45 
  5- 15 0.160 0.252 0.376 0.092 0.252   1.00   1.69   6.60   0.00   0.00   0.45 
 15- 30 0.160 0.252 0.376 0.092 0.252   1.00   1.69   6.60   0.00   0.00   0.45 
 30- 53 0.120 0.200 0.440 0.080 0.200   0.27   1.40   7.10   0.00   0.00   0.17 
 53- 77 0.120 0.200 0.440 0.080 0.200   0.27   1.40   7.10   0.00   0.00   0.17 
 77-100 0.120 0.200 0.440 0.080 0.200   0.27   1.40   7.10   0.00   0.00   0.17 
                                                                                
TOT-100  13.2  21.6  42.1   8.4  21.6  <--cm   -  kg/ha-->    0.0    0.0  39475 
SOIL ALBEDO    : 0.09      EVAPORATION LIMIT : 6.00         MIN. FACTOR  : 1.00 
RUNOFF CURVE # :76.00      DRAINAGE RATE     : 0.60         FERT. FACTOR : 1.00 
                                                                                
 Maize      CULTIVAR :CI0004-DK7088             ECOTYPE :IB0001                 
 P1     : 229.00  P2     : 0.3000  P5     : 971.00                              
 G2     : 957.00  G3     :  7.500  PHINT  : 45.000                              


*SIMULATED CROP AND SOIL STATUS AT MAIN DEVELOPMENT STAGES

 RUN NO.    32     P12/31                  

        CROP GROWTH     BIOMASS         LEAF   CROP N     STRESS      STRESS                                           
   DATE  AGE STAGE        kg/ha    LAI   NUM  kg/ha  %   H2O  Nitr Phos1 Phos2  RSTG                                   
 ------  --- ----------   -----  -----  ----  ---  ---  ----  ----  ----  ----  ----                                   
  1 DEC    0 Start Sim        0   0.00   0.0    0  0.0  0.00  0.00  0.00  0.00     7
 31 DEC    0 Sowing           0   0.00   0.0    0  0.0  0.00  0.00  0.00  0.00     8
  1 JAN    1 Germinate        0   0.00   0.0    0  0.0  0.00  0.00  0.00  0.00     9
  5 JAN    5 Emergence       25   0.00   2.2    1  4.4  0.00  0.01  0.00  0.00     1
 16 JAN   16 End Juveni     151   0.31   7.9    4  2.8  0.00  0.00  0.00  0.00     2
 20 JAN   20 Floral Ini     275   0.48   9.8    5  1.8  0.00  0.39  0.00  0.00     3
 17 FEB   48 75% Silkin    1795   0.72  20.2   38  2.1  0.42  0.63  0.00  0.00     4
 25 FEB   56 Beg Gr Fil    2870   0.72  20.2   38  1.3  0.00  0.00  0.00  0.00     5
  2 APR   92 End Gr Fil    6029   0.54  20.2   77  1.3  0.26  0.00  0.00  0.00     6
  5 APR   95 Maturity      6029   0.54  20.2   77  1.3  0.00  0.00  0.00  0.00    10
  5 APR   95 Harvest       6029   0.54  20.2   77  1.3  0.00  0.00  0.00  0.00    10


*MAIN GROWTH AND DEVELOPMENT VARIABLES

@     VARIABLE                                         SIMULATED     MEASURED
      --------                                         ---------     --------
      Anthesis day (dap)                                      48          -99
      Physiological maturity day (dap)                        95          -99
      Yield at harvest maturity (kg [dm]/ha)                3307          -99
      Number at maturity (no/m2)                            1807          -99
      Unit wt at maturity (g [dm]/unit)                   0.1830          -99
      Number at maturity (no/unit)                         291.4          -99
      Tops weight at maturity (kg [dm]/ha)                  6029          -99
      By-product produced (stalk) at maturity (kg[dm]/ha    2745          -99
      Leaf area index, maximum                              0.72          -99
      Harvest index at maturity                            0.548          -99
      Grain N at maturity (kg/ha)                             59          -99
      Tops N at maturity (kg/ha)                              77          -99
      Stem N at maturity (kg/ha)                              18          -99
      Grain N at maturity (%)                                1.8          -99
      Tops weight at anthesis (kg [dm]/ha)                  1677          -99
      Tops N at anthesis (kg/ha)                              36          -99
      Leaf number per stem at maturity                     20.18          -99
      Emergence day (dap)                                      5          -99


*ENVIRONMENTAL AND STRESS FACTORS

 |-----Development Phase------|--------------------------------------Environment--------------------------------------|-----------------Stress-----------------|
                              |---------------Average--------------|-----Cumulative-----|--------Count of days--------|          (0=Min, 1=Max Stress)         |
                         Time  Temp  Temp  Temp Solar Photop                Evapo    Pot TMIN TMIN TMAX TMAX TMAX RAIN|----Water----|---Nitrogen--|-Phosphorus-|
                         Span   Max   Min  Mean   Rad  [day]    CO2   Rain  Trans     ET   <    <    >    >    >    >   Photo         Photo         Photo
                         days    邂    邂    邂 MJ/m2     hr    ppm     mm     mm     mm  0邂  2邂 30邂 32邂 34邂  0mm  synth Growth  synth Growth  synth Growth
----------------------------------------------------------------------------------------------------------------------------------------------------------------
 Emergence-End Juvenile    11  33.1  23.0  28.0  19.9   0.00  347.8    0.0    9.2   63.7    0    0   11    8    3    0  0.000  0.000  0.002  0.006  0.000  0.000
 End Juvenil-Floral Init    4  35.5  22.5  29.0  20.3   0.00  348.0    0.0    6.1   24.2    0    0    4    4    4    0  0.000  0.000  0.099  0.247  0.000  0.000
 Floral Init-End Lf Grow   28  34.4  23.7  29.0  18.6   0.00  348.0   83.5   52.8  150.2    0    0   26   24   15    7  0.290  0.423  0.440  0.653  0.000  0.000
 End Lf Grth-Beg Grn Fil    8  35.0  24.1  29.6  22.0   0.00  348.1    3.3   26.3   51.0    0    0    8    8    6    2  0.000  0.000  0.000  0.000  0.000  0.000
 Grain Filling Phase       36  34.1  23.8  29.0  20.0   8.75  348.2   91.5  105.7  207.7    0    0   32   30   19    8  0.160  0.244  0.000  0.000  0.000  0.000


 Planting to Harvest       95  34.0  23.6  28.8  19.5   3.83  348.1  259.6  230.4  536.5    0    0   88   77   47   22  0.151  0.224  0.134  0.203  0.000  0.000
----------------------------------------------------------------------------------------------------------------------------------------------------------------


*Resource Productivity
 Growing season length:  95 days 

 Precipitation during growing season       259.6 mm[rain]
   Dry Matter Productivity                  2.32 kg[DM]/m3[rain]          =   23.2 kg[DM]/ha per mm[rain]
   Yield Productivity                       1.27 kg[grain yield]/m3[rain] =   12.7 kg[yield]/ha per mm[rain]

 Evapotranspiration during growing season  230.4 mm[ET]
   Dry Matter Productivity                  2.62 kg[DM]/m3[ET]            =   26.2 kg[DM]/ha per mm[ET]
   Yield Productivity                       1.44 kg[grain yield]/m3[ET]   =   14.4 kg[yield]/ha per mm[ET]

 Transpiration during growing season       129.4 mm[EP]
   Dry Matter Productivity                  4.66 kg[DM]/m3[EP]            =   46.6 kg[DM]/ha per mm[EP]
   Yield Productivity                       2.55 kg[grain yield]/m3[EP]   =   25.5 kg[yield]/ha per mm[EP]

 N applied during growing season            162. kg[N applied]/ha
   Dry Matter Productivity                  37.2 kg[DM]/kg[N applied]
   Yield Productivity                       20.4 kg[yield]/kg[N applied]

 N uptake during growing season               82 kg[N uptake]/ha
   Dry Matter Productivity                  73.5 kg[DM]/kg[N uptake]
   Yield Productivity                       40.3 kg[yield]/kg[N uptake]

--------------------------------------------------------------------------------------------------------------

                     Maize YIELD :     3307 kg/ha    [Dry weight] 

**************************************************************************************************************
