*SIMULATION OVERVIEW FILE

*DSSAT Cropping System Model Ver. 4.6.1.000 -release      OCT 02, 2017; 13:56:32
                                                                                
*RUN   1        : P04/02                    MZCER046 ANBU2002    1              
 MODEL          : MZCER046 - Maize                                              
 EXPERIMENT     : ANBU2002 MZ  Analisis a침os de bajo rendimiento Buga          
 DATA PATH      : C:\DSSAT46\maize\                                             
 TREATMENT  1   : P04/02                    MZCER046                            
                                                                                
                                                                                
 CROP           : Maize            CULTIVAR : DK7088           ECOTYPE :IB0001  
 STARTING DATE  : MAR  3 2002                                                   
 PLANTING DATE  : APR  2 2002        PLANTS/m2 :  6.2     ROW SPACING :  80.cm  
 WEATHER        : CUNI   2002                                                   
 SOIL           : CCBUGA2017     TEXTURE : CL    -   Suelo Buga MADR Fase I     
 SOIL INITIAL C : DEPTH: 90cm EXTR. H2O: 83.9mm  NO3:151.4kg/ha  NH4: 62.4kg/ha 
 WATER BALANCE  : RAINFED                                                       
 IRRIGATION     : NOT IRRIGATED                                                 
 NITROGEN BAL.  : SOIL-N & N-UPTAKE SIMULATION; NO N-FIXATION                   
 N-FERTILIZER   :      161 kg/ha IN     5 APPLICATIONS                          
 RESIDUE/MANURE : INITIAL :     0 kg/ha ;       0 kg/ha IN     0 APPLICATIONS   
 ENVIRONM. OPT. : DAYL=    0.00  SRAD=    0.00  TMAX=    0.00  TMIN=    0.00    
                  RAIN=    0.00  CO2 =    0.00  DEW =    0.00  WIND=    0.00    
 SIMULATION OPT : WATER   :Y  NITROGEN:Y  N-FIX:N  PHOSPH :N  PESTS  :N         
                  PHOTO   :C  ET      :R  INFIL:S  HYDROL :R  SOM    :G         
                  CO2 372ppm  NSWIT   :1  EVAP :S  SOIL   :2  STEMP  :D         
 MANAGEMENT OPT : PLANTING:R  IRRIG   :N  FERT :D  RESIDUE:R  HARVEST:M         
                  WEATHER :M  TILLAGE :N                                        
                                                                                
*SUMMARY OF SOIL AND GENETIC INPUT PARAMETERS                                   
                                                                                
   SOIL LOWER UPPER   SAT  EXTR  INIT   ROOT   BULK     pH    NO3    NH4    ORG 
  DEPTH LIMIT LIMIT    SW    SW    SW   DIST   DENS                          C  
   cm   cm3/cm3    cm3/cm3    cm3/cm3         g/cm3         ugN/g  ugN/g     %  
------------------------------------------------------------------------------- 
  0-  5 0.215 0.331 0.341 0.116 0.319   1.00   1.68   6.70  11.90   4.21   0.75 
  5- 15 0.215 0.331 0.341 0.116 0.319   1.00   1.68   6.70  11.90   4.21   0.75 
 15- 25 0.215 0.331 0.341 0.116 0.319   1.00   1.68   6.70  11.90   4.21   0.75 
 25- 35 0.181 0.291 0.364 0.110 0.331   0.50   1.61   7.20  12.15   4.32   0.53 
 35- 45 0.181 0.291 0.364 0.110 0.344   0.50   1.61   7.20  12.40   4.44   0.53 
 45- 67 0.096 0.169 0.404 0.073 0.290   0.27   1.51   7.00  10.67   4.47   0.05 
 67- 90 0.096 0.169 0.404 0.073 0.195   0.27   1.51   7.00   7.63   4.53   0.05 
                                                                                
TOT- 90  13.3  21.7  34.0   8.4  25.6  <--cm   -  kg/ha-->  151.4   62.4  51964 
SOIL ALBEDO    : 0.09      EVAPORATION LIMIT : 6.00         MIN. FACTOR  : 1.00 
RUNOFF CURVE # :76.00      DRAINAGE RATE     : 0.60         FERT. FACTOR : 1.00 
                                                                                
 Maize      CULTIVAR :CI0004-DK7088             ECOTYPE :IB0001                 
 P1     : 229.00  P2     : 0.3000  P5     : 971.00                              
 G2     : 957.00  G3     :  7.500  PHINT  : 45.000                              


*SIMULATED CROP AND SOIL STATUS AT MAIN DEVELOPMENT STAGES

 RUN NO.     1     P04/02                  

        CROP GROWTH     BIOMASS         LEAF   CROP N     STRESS      STRESS                                           
   DATE  AGE STAGE        kg/ha    LAI   NUM  kg/ha  %   H2O  Nitr Phos1 Phos2  RSTG                                   
 ------  --- ----------   -----  -----  ----  ---  ---  ----  ----  ----  ----  ----                                   
  3 MAR    0 Start Sim        0   0.00   0.0    0  0.0  0.00  0.00  0.00  0.00     7
  2 APR    0 Sowing           0   0.00   0.0    0  0.0  0.00  0.00  0.00  0.00     8
  3 APR    1 Germinate        0   0.00   0.0    0  0.0  0.00  0.00  0.00  0.00     9
  8 APR    6 Emergence       25   0.00   2.1    1  4.4  0.00  0.01  0.00  0.00     1
 21 APR   19 End Juveni     130   0.27   7.7    4  3.4  0.00  0.00  0.00  0.00     2
 27 APR   25 Floral Ini     258   0.48   9.9    9  3.6  0.00  0.00  0.00  0.00     3
  2 JUN   61 75% Silkin    5934   3.36  20.9  122  2.1  0.07  0.00  0.00  0.00     4
 13 JUN   72 Beg Gr Fil    7900   3.12  20.9  122  1.5  0.18  0.00  0.00  0.00     5
 27 JUL  116 End Gr Fil   10600   0.68  20.9  133  1.3  0.75  0.00  0.00  0.00     6
 31 JUL  120 Maturity     10600   0.68  20.9  133  1.3  0.98  0.00  0.00  0.00    10
 31 JUL  120 Harvest      10600   0.68  20.9  133  1.3  0.00  0.00  0.00  0.00    10


*MAIN GROWTH AND DEVELOPMENT VARIABLES

@     VARIABLE                                         SIMULATED     MEASURED
      --------                                         ---------     --------
      Anthesis day (dap)                                      61          -99
      Physiological maturity day (dap)                       120          -99
      Yield at harvest maturity (kg [dm]/ha)                4311          -99
      Number at maturity (no/m2)                            2448          -99
      Unit wt at maturity (g [dm]/unit)                   0.1761          -99
      Number at maturity (no/unit)                         394.8          -99
      Tops weight at maturity (kg [dm]/ha)                 10600          -99
      By-product produced (stalk) at maturity (kg[dm]/ha    6346          -99
      Leaf area index, maximum                              3.47          -99
      Harvest index at maturity                            0.407          -99
      Grain N at maturity (kg/ha)                             79          -99
      Tops N at maturity (kg/ha)                             133          -99
      Stem N at maturity (kg/ha)                              55          -99
      Grain N at maturity (%)                                1.8          -99
      Tops weight at anthesis (kg [dm]/ha)                  5789          -99
      Tops N at anthesis (kg/ha)                             120          -99
      Leaf number per stem at maturity                     20.88          -99
      Emergence day (dap)                                      6          -99


*ENVIRONMENTAL AND STRESS FACTORS

 |-----Development Phase------|--------------------------------------Environment--------------------------------------|-----------------Stress-----------------|
                              |---------------Average--------------|-----Cumulative-----|--------Count of days--------|          (0=Min, 1=Max Stress)         |
                         Time  Temp  Temp  Temp Solar Photop                Evapo    Pot TMIN TMIN TMAX TMAX TMAX RAIN|----Water----|---Nitrogen--|-Phosphorus-|
                         Span   Max   Min  Mean   Rad  [day]    CO2   Rain  Trans     ET   <    <    >    >    >    >   Photo         Photo         Photo
                         days    邂    邂    邂 MJ/m2     hr    ppm     mm     mm     mm  0邂  2邂 30邂 32邂 34邂  0mm  synth Growth  synth Growth  synth Growth
----------------------------------------------------------------------------------------------------------------------------------------------------------------
 Emergence-End Juvenile    13  30.4  19.3  24.9  14.9  22.01  372.4   43.0   29.9   53.7    0    0    8    4    0    5  0.000  0.000  0.002  0.005  0.000  0.000
 End Juvenil-Floral Init    6  29.7  19.9  24.8  12.7  24.00  372.5   58.0   16.8   20.5    0    0    3    0    0    5  0.000  0.000  0.001  0.001  0.000  0.000
 Floral Init-End Lf Grow   36  29.0  19.4  24.2  14.6  24.00  372.6   60.1  117.7  127.8    0    0   12    2    0   12  0.021  0.050  0.000  0.000  0.000  0.000
 End Lf Grth-Beg Grn Fil   11  30.6  18.8  24.7  15.4  24.00  372.7   65.1   34.5   40.2    0    0    8    2    0    9  0.170  0.235  0.000  0.000  0.000  0.000
 Grain Filling Phase       44  30.6  19.0  24.8  17.3  24.00  373.0   22.2   75.1  186.9    0    0   31   10    1    8  0.677  0.727  0.000  0.000  0.000  0.000


 Planting to Harvest      120  29.9  19.2  24.6  15.9  23.42  372.7  305.8  301.5  477.0    0    0   66   18    1   43  0.302  0.336  0.000  0.001  0.000  0.000
----------------------------------------------------------------------------------------------------------------------------------------------------------------


*Resource Productivity
 Growing season length: 120 days 

 Precipitation during growing season       305.8 mm[rain]
   Dry Matter Productivity                  3.47 kg[DM]/m3[rain]          =   34.7 kg[DM]/ha per mm[rain]
   Yield Productivity                       1.41 kg[grain yield]/m3[rain] =   14.1 kg[yield]/ha per mm[rain]

 Evapotranspiration during growing season  301.5 mm[ET]
   Dry Matter Productivity                  3.52 kg[DM]/m3[ET]            =   35.2 kg[DM]/ha per mm[ET]
   Yield Productivity                       1.43 kg[grain yield]/m3[ET]   =   14.3 kg[yield]/ha per mm[ET]

 Transpiration during growing season       166.8 mm[EP]
   Dry Matter Productivity                  6.35 kg[DM]/m3[EP]            =   63.5 kg[DM]/ha per mm[EP]
   Yield Productivity                       2.58 kg[grain yield]/m3[EP]   =   25.8 kg[yield]/ha per mm[EP]

 N applied during growing season            161. kg[N applied]/ha
   Dry Matter Productivity                  65.8 kg[DM]/kg[N applied]
   Yield Productivity                       26.8 kg[yield]/kg[N applied]

 N uptake during growing season              145 kg[N uptake]/ha
   Dry Matter Productivity                  73.1 kg[DM]/kg[N uptake]
   Yield Productivity                       29.7 kg[yield]/kg[N uptake]

--------------------------------------------------------------------------------------------------------------

                     Maize YIELD :     4311 kg/ha    [Dry weight] 

**************************************************************************************************************

*DSSAT Cropping System Model Ver. 4.6.1.000 -release      OCT 02, 2017; 13:56:33
                                                                                
*RUN   2        : P04/07                    MZCER046 ANBU2002    2              
 MODEL          : MZCER046 - Maize                                              
 EXPERIMENT     : ANBU2002 MZ  Analisis a침os de bajo rendimiento Buga          
 DATA PATH      : C:\DSSAT46\maize\                                             
 TREATMENT  2   : P04/07                    MZCER046                            
                                                                                
                                                                                
 CROP           : Maize            CULTIVAR : DK7088           ECOTYPE :IB0001  
 STARTING DATE  : MAR  8 2002                                                   
 PLANTING DATE  : APR  7 2002        PLANTS/m2 :  6.2     ROW SPACING :  80.cm  
 WEATHER        : CUNI   2002                                                   
 SOIL           : CCBUGA2017     TEXTURE : CL    -   Suelo Buga MADR Fase I     
 SOIL INITIAL C : DEPTH: 90cm EXTR. H2O: 83.9mm  NO3:151.4kg/ha  NH4: 62.4kg/ha 
 WATER BALANCE  : RAINFED                                                       
 IRRIGATION     : NOT IRRIGATED                                                 
 NITROGEN BAL.  : SOIL-N & N-UPTAKE SIMULATION; NO N-FIXATION                   
 N-FERTILIZER   :      161 kg/ha IN     5 APPLICATIONS                          
 RESIDUE/MANURE : INITIAL :     0 kg/ha ;       0 kg/ha IN     0 APPLICATIONS   
 ENVIRONM. OPT. : DAYL=    0.00  SRAD=    0.00  TMAX=    0.00  TMIN=    0.00    
                  RAIN=    0.00  CO2 =    0.00  DEW =    0.00  WIND=    0.00    
 SIMULATION OPT : WATER   :Y  NITROGEN:Y  N-FIX:N  PHOSPH :N  PESTS  :N         
                  PHOTO   :C  ET      :R  INFIL:S  HYDROL :R  SOM    :G         
                  CO2 372ppm  NSWIT   :1  EVAP :S  SOIL   :2  STEMP  :D         
 MANAGEMENT OPT : PLANTING:R  IRRIG   :N  FERT :D  RESIDUE:R  HARVEST:M         
                  WEATHER :M  TILLAGE :N                                        
                                                                                
*SUMMARY OF SOIL AND GENETIC INPUT PARAMETERS                                   
                                                                                
   SOIL LOWER UPPER   SAT  EXTR  INIT   ROOT   BULK     pH    NO3    NH4    ORG 
  DEPTH LIMIT LIMIT    SW    SW    SW   DIST   DENS                          C  
   cm   cm3/cm3    cm3/cm3    cm3/cm3         g/cm3         ugN/g  ugN/g     %  
------------------------------------------------------------------------------- 
  0-  5 0.215 0.331 0.341 0.116 0.319   1.00   1.68   6.70  11.90   4.21   0.75 
  5- 15 0.215 0.331 0.341 0.116 0.319   1.00   1.68   6.70  11.90   4.21   0.75 
 15- 25 0.215 0.331 0.341 0.116 0.319   1.00   1.68   6.70  11.90   4.21   0.75 
 25- 35 0.181 0.291 0.364 0.110 0.331   0.50   1.61   7.20  12.15   4.32   0.53 
 35- 45 0.181 0.291 0.364 0.110 0.344   0.50   1.61   7.20  12.40   4.44   0.53 
 45- 67 0.096 0.169 0.404 0.073 0.290   0.27   1.51   7.00  10.67   4.47   0.05 
 67- 90 0.096 0.169 0.404 0.073 0.195   0.27   1.51   7.00   7.63   4.53   0.05 
                                                                                
TOT- 90  13.3  21.7  34.0   8.4  25.6  <--cm   -  kg/ha-->  151.4   62.4  51964 
SOIL ALBEDO    : 0.09      EVAPORATION LIMIT : 6.00         MIN. FACTOR  : 1.00 
RUNOFF CURVE # :76.00      DRAINAGE RATE     : 0.60         FERT. FACTOR : 1.00 
                                                                                
 Maize      CULTIVAR :CI0004-DK7088             ECOTYPE :IB0001                 
 P1     : 229.00  P2     : 0.3000  P5     : 971.00                              
 G2     : 957.00  G3     :  7.500  PHINT  : 45.000                              


*SIMULATED CROP AND SOIL STATUS AT MAIN DEVELOPMENT STAGES

 RUN NO.     2     P04/07                  

        CROP GROWTH     BIOMASS         LEAF   CROP N     STRESS      STRESS                                           
   DATE  AGE STAGE        kg/ha    LAI   NUM  kg/ha  %   H2O  Nitr Phos1 Phos2  RSTG                                   
 ------  --- ----------   -----  -----  ----  ---  ---  ----  ----  ----  ----  ----                                   
  8 MAR    0 Start Sim        0   0.00   0.0    0  0.0  0.00  0.00  0.00  0.00     7
  7 APR    0 Sowing           0   0.00   0.0    0  0.0  0.00  0.00  0.00  0.00     8
  8 APR    1 Germinate        0   0.00   0.0    0  0.0  0.00  0.00  0.00  0.00     9
 13 APR    6 Emergence       25   0.00   2.1    1  4.4  0.00  0.01  0.00  0.00     1
 26 APR   19 End Juveni      89   0.19   7.7    3  3.7  0.00  0.00  0.00  0.00     2
  3 MAY   26 Floral Ini     292   0.54  10.3   11  3.6  0.00  0.00  0.00  0.00     3
  9 JUN   63 75% Silkin    6288   3.57  21.5  130  2.1  0.10  0.00  0.00  0.00     4
 19 JUN   73 Beg Gr Fil    8852   3.49  21.5  134  1.5  0.03  0.00  0.00  0.00     5
  4 AUG  119 End Gr Fil   10723   0.53  21.5  135  1.3  0.87  0.00  0.00  0.00     6
  7 AUG  122 Maturity     10723   0.53  21.5  135  1.3  0.98  0.00  0.00  0.00    10
  7 AUG  122 Harvest      10723   0.53  21.5  135  1.3  0.00  0.00  0.00  0.00    10


*MAIN GROWTH AND DEVELOPMENT VARIABLES

@     VARIABLE                                         SIMULATED     MEASURED
      --------                                         ---------     --------
      Anthesis day (dap)                                      63          -99
      Physiological maturity day (dap)                       122          -99
      Yield at harvest maturity (kg [dm]/ha)                3465          -99
      Number at maturity (no/m2)                            3209          -99
      Unit wt at maturity (g [dm]/unit)                   0.1080          -99
      Number at maturity (no/unit)                         517.6          -99
      Tops weight at maturity (kg [dm]/ha)                 10723          -99
      By-product produced (stalk) at maturity (kg[dm]/ha    7318          -99
      Leaf area index, maximum                              3.57          -99
      Harvest index at maturity                            0.323          -99
      Grain N at maturity (kg/ha)                             64          -99
      Tops N at maturity (kg/ha)                             135          -99
      Stem N at maturity (kg/ha)                              71          -99
      Grain N at maturity (%)                                1.9          -99
      Tops weight at anthesis (kg [dm]/ha)                  6112          -99
      Tops N at anthesis (kg/ha)                             129          -99
      Leaf number per stem at maturity                     21.51          -99
      Emergence day (dap)                                      6          -99


*ENVIRONMENTAL AND STRESS FACTORS

 |-----Development Phase------|--------------------------------------Environment--------------------------------------|-----------------Stress-----------------|
                              |---------------Average--------------|-----Cumulative-----|--------Count of days--------|          (0=Min, 1=Max Stress)         |
                         Time  Temp  Temp  Temp Solar Photop                Evapo    Pot TMIN TMIN TMAX TMAX TMAX RAIN|----Water----|---Nitrogen--|-Phosphorus-|
                         Span   Max   Min  Mean   Rad  [day]    CO2   Rain  Trans     ET   <    <    >    >    >    >   Photo         Photo         Photo
                         days    邂    邂    邂 MJ/m2     hr    ppm     mm     mm     mm  0邂  2邂 30邂 32邂 34邂  0mm  synth Growth  synth Growth  synth Growth
----------------------------------------------------------------------------------------------------------------------------------------------------------------
 Emergence-End Juvenile    13  29.9  19.7  24.8  14.6  23.76  372.5   58.0   23.9   52.8    0    0    7    2    0    7  0.000  0.000  0.002  0.005  0.000  0.000
 End Juvenil-Floral Init    7  28.9  19.4  24.1  15.1  24.00  372.5   23.0   28.4   28.4    0    0    3    0    0    4  0.000  0.000  0.000  0.001  0.000  0.000
 Floral Init-End Lf Grow   37  29.4  19.3  24.4  14.5  24.00  372.6   81.2  108.7  129.9    0    0   15    3    0   14  0.050  0.099  0.000  0.000  0.000  0.000
 End Lf Grth-Beg Grn Fil   10  31.1  18.7  24.9  17.0  24.00  372.8   30.0   40.3   40.4    0    0    8    3    0    4  0.000  0.000  0.000  0.000  0.000  0.000
 Grain Filling Phase       46  30.1  18.7  24.4  17.8  24.00  373.0   26.4   58.1  201.2    0    0   26    8    1    9  0.802  0.854  0.000  0.000  0.000  0.000


 Planting to Harvest      122  30.0  19.0  24.5  16.1  23.74  372.8  252.6  281.7  491.2    0    0   67   20    1   40  0.341  0.376  0.000  0.001  0.000  0.000
----------------------------------------------------------------------------------------------------------------------------------------------------------------


*Resource Productivity
 Growing season length: 122 days 

 Precipitation during growing season       252.6 mm[rain]
   Dry Matter Productivity                  4.24 kg[DM]/m3[rain]          =   42.4 kg[DM]/ha per mm[rain]
   Yield Productivity                       1.37 kg[grain yield]/m3[rain] =   13.7 kg[yield]/ha per mm[rain]

 Evapotranspiration during growing season  281.7 mm[ET]
   Dry Matter Productivity                  3.81 kg[DM]/m3[ET]            =   38.1 kg[DM]/ha per mm[ET]
   Yield Productivity                       1.23 kg[grain yield]/m3[ET]   =   12.3 kg[yield]/ha per mm[ET]

 Transpiration during growing season       159.4 mm[EP]
   Dry Matter Productivity                  6.73 kg[DM]/m3[EP]            =   67.3 kg[DM]/ha per mm[EP]
   Yield Productivity                       2.17 kg[grain yield]/m3[EP]   =   21.7 kg[yield]/ha per mm[EP]

 N applied during growing season            161. kg[N applied]/ha
   Dry Matter Productivity                  66.6 kg[DM]/kg[N applied]
   Yield Productivity                       21.5 kg[yield]/kg[N applied]

 N uptake during growing season              145 kg[N uptake]/ha
   Dry Matter Productivity                  74.0 kg[DM]/kg[N uptake]
   Yield Productivity                       23.9 kg[yield]/kg[N uptake]

--------------------------------------------------------------------------------------------------------------

                     Maize YIELD :     3465 kg/ha    [Dry weight] 

**************************************************************************************************************

*DSSAT Cropping System Model Ver. 4.6.1.000 -release      OCT 02, 2017; 13:56:33
                                                                                
*RUN   3        : P04/12                    MZCER046 ANBU2002    3              
 MODEL          : MZCER046 - Maize                                              
 EXPERIMENT     : ANBU2002 MZ  Analisis a침os de bajo rendimiento Buga          
 DATA PATH      : C:\DSSAT46\maize\                                             
 TREATMENT  3   : P04/12                    MZCER046                            
                                                                                
                                                                                
 CROP           : Maize            CULTIVAR : DK7088           ECOTYPE :IB0001  
 STARTING DATE  : MAR 13 2002                                                   
 PLANTING DATE  : APR 12 2002        PLANTS/m2 :  6.2     ROW SPACING :  80.cm  
 WEATHER        : CUNI   2002                                                   
 SOIL           : CCBUGA2017     TEXTURE : CL    -   Suelo Buga MADR Fase I     
 SOIL INITIAL C : DEPTH: 90cm EXTR. H2O: 83.9mm  NO3:151.4kg/ha  NH4: 62.4kg/ha 
 WATER BALANCE  : RAINFED                                                       
 IRRIGATION     : NOT IRRIGATED                                                 
 NITROGEN BAL.  : SOIL-N & N-UPTAKE SIMULATION; NO N-FIXATION                   
 N-FERTILIZER   :      161 kg/ha IN     5 APPLICATIONS                          
 RESIDUE/MANURE : INITIAL :     0 kg/ha ;       0 kg/ha IN     0 APPLICATIONS   
 ENVIRONM. OPT. : DAYL=    0.00  SRAD=    0.00  TMAX=    0.00  TMIN=    0.00    
                  RAIN=    0.00  CO2 =    0.00  DEW =    0.00  WIND=    0.00    
 SIMULATION OPT : WATER   :Y  NITROGEN:Y  N-FIX:N  PHOSPH :N  PESTS  :N         
                  PHOTO   :C  ET      :R  INFIL:S  HYDROL :R  SOM    :G         
                  CO2 372ppm  NSWIT   :1  EVAP :S  SOIL   :2  STEMP  :D         
 MANAGEMENT OPT : PLANTING:R  IRRIG   :N  FERT :D  RESIDUE:R  HARVEST:M         
                  WEATHER :M  TILLAGE :N                                        
                                                                                
*SUMMARY OF SOIL AND GENETIC INPUT PARAMETERS                                   
                                                                                
   SOIL LOWER UPPER   SAT  EXTR  INIT   ROOT   BULK     pH    NO3    NH4    ORG 
  DEPTH LIMIT LIMIT    SW    SW    SW   DIST   DENS                          C  
   cm   cm3/cm3    cm3/cm3    cm3/cm3         g/cm3         ugN/g  ugN/g     %  
------------------------------------------------------------------------------- 
  0-  5 0.215 0.331 0.341 0.116 0.319   1.00   1.68   6.70  11.90   4.21   0.75 
  5- 15 0.215 0.331 0.341 0.116 0.319   1.00   1.68   6.70  11.90   4.21   0.75 
 15- 25 0.215 0.331 0.341 0.116 0.319   1.00   1.68   6.70  11.90   4.21   0.75 
 25- 35 0.181 0.291 0.364 0.110 0.331   0.50   1.61   7.20  12.15   4.32   0.53 
 35- 45 0.181 0.291 0.364 0.110 0.344   0.50   1.61   7.20  12.40   4.44   0.53 
 45- 67 0.096 0.169 0.404 0.073 0.290   0.27   1.51   7.00  10.67   4.47   0.05 
 67- 90 0.096 0.169 0.404 0.073 0.195   0.27   1.51   7.00   7.63   4.53   0.05 
                                                                                
TOT- 90  13.3  21.7  34.0   8.4  25.6  <--cm   -  kg/ha-->  151.4   62.4  51964 
SOIL ALBEDO    : 0.09      EVAPORATION LIMIT : 6.00         MIN. FACTOR  : 1.00 
RUNOFF CURVE # :76.00      DRAINAGE RATE     : 0.60         FERT. FACTOR : 1.00 
                                                                                
 Maize      CULTIVAR :CI0004-DK7088             ECOTYPE :IB0001                 
 P1     : 229.00  P2     : 0.3000  P5     : 971.00                              
 G2     : 957.00  G3     :  7.500  PHINT  : 45.000                              


*SIMULATED CROP AND SOIL STATUS AT MAIN DEVELOPMENT STAGES

 RUN NO.     3     P04/12                  

        CROP GROWTH     BIOMASS         LEAF   CROP N     STRESS      STRESS                                           
   DATE  AGE STAGE        kg/ha    LAI   NUM  kg/ha  %   H2O  Nitr Phos1 Phos2  RSTG                                   
 ------  --- ----------   -----  -----  ----  ---  ---  ----  ----  ----  ----  ----                                   
 13 MAR    0 Start Sim        0   0.00   0.0    0  0.0  0.00  0.00  0.00  0.00     7
 12 APR    0 Sowing           0   0.00   0.0    0  0.0  0.00  0.00  0.00  0.00     8
 13 APR    1 Germinate        0   0.00   0.0    0  0.0  0.00  0.00  0.00  0.00     9
 18 APR    6 Emergence       25   0.00   2.1    1  4.4  0.00  0.01  0.00  0.00     1
  1 MAY   19 End Juveni      68   0.15   7.5    2  3.2  0.00  0.00  0.00  0.00     2
  8 MAY   26 Floral Ini     308   0.56  10.1   11  3.6  0.00  0.00  0.00  0.00     3
 14 JUN   63 75% Silkin    6648   3.68  21.1  131  2.0  0.04  0.00  0.00  0.00     4
 24 JUN   73 Beg Gr Fil    8742   3.28  21.1  131  1.5  0.29  0.00  0.00  0.00     5
  8 AUG  118 End Gr Fil   10188   0.48  21.1  131  1.3  0.89  0.00  0.00  0.00     6
 11 AUG  121 Maturity     10188   0.48  21.1  131  1.3  0.00  0.00  0.00  0.00    10
 11 AUG  121 Harvest      10188   0.48  21.1  131  1.3  0.00  0.00  0.00  0.00    10


*MAIN GROWTH AND DEVELOPMENT VARIABLES

@     VARIABLE                                         SIMULATED     MEASURED
      --------                                         ---------     --------
      Anthesis day (dap)                                      63          -99
      Physiological maturity day (dap)                       121          -99
      Yield at harvest maturity (kg [dm]/ha)                2924          -99
      Number at maturity (no/m2)                            3028          -99
      Unit wt at maturity (g [dm]/unit)                   0.0966          -99
      Number at maturity (no/unit)                         488.4          -99
      Tops weight at maturity (kg [dm]/ha)                 10188          -99
      By-product produced (stalk) at maturity (kg[dm]/ha    7327          -99
      Leaf area index, maximum                              3.81          -99
      Harvest index at maturity                            0.287          -99
      Grain N at maturity (kg/ha)                             54          -99
      Tops N at maturity (kg/ha)                             131          -99
      Stem N at maturity (kg/ha)                              77          -99
      Grain N at maturity (%)                                1.9          -99
      Tops weight at anthesis (kg [dm]/ha)                  6329          -99
      Tops N at anthesis (kg/ha)                             127          -99
      Leaf number per stem at maturity                     21.06          -99
      Emergence day (dap)                                      6          -99


*ENVIRONMENTAL AND STRESS FACTORS

 |-----Development Phase------|--------------------------------------Environment--------------------------------------|-----------------Stress-----------------|
                              |---------------Average--------------|-----Cumulative-----|--------Count of days--------|          (0=Min, 1=Max Stress)         |
                         Time  Temp  Temp  Temp Solar Photop                Evapo    Pot TMIN TMIN TMAX TMAX TMAX RAIN|----Water----|---Nitrogen--|-Phosphorus-|
                         Span   Max   Min  Mean   Rad  [day]    CO2   Rain  Trans     ET   <    <    >    >    >    >   Photo         Photo         Photo
                         days    邂    邂    邂 MJ/m2     hr    ppm     mm     mm     mm  0邂  2邂 30邂 32邂 34邂  0mm  synth Growth  synth Growth  synth Growth
----------------------------------------------------------------------------------------------------------------------------------------------------------------
 Emergence-End Juvenile    13  28.9  19.8  24.3  13.7  24.00  372.5   80.0   37.8   49.2    0    0    5    0    0   10  0.000  0.000  0.002  0.005  0.000  0.000
 End Juvenil-Floral Init    7  28.5  19.5  24.0  14.9  24.00  372.5    0.0   13.3   27.7    0    0    2    0    0    0  0.000  0.000  0.000  0.000  0.000  0.000
 Floral Init-End Lf Grow   37  29.7  19.2  24.5  14.8  24.00  372.7  111.2  117.2  132.6    0    0   17    5    0   18  0.010  0.040  0.000  0.000  0.000  0.000
 End Lf Grth-Beg Grn Fil   10  30.3  19.1  24.7  17.8  24.00  372.9    0.0   37.5   42.0    0    0    7    1    0    0  0.123  0.215  0.000  0.000  0.000  0.000
 Grain Filling Phase       45  30.4  18.5  24.5  17.9  24.00  373.0   26.4   48.8  200.0    0    0   28   10    1    9  0.845  0.882  0.000  0.000  0.000  0.000


 Planting to Harvest      121  30.0  19.0  24.5  16.3  23.95  372.8  237.6  269.8  493.8    0    0   67   21    2   39  0.335  0.366  0.000  0.001  0.000  0.000
----------------------------------------------------------------------------------------------------------------------------------------------------------------


*Resource Productivity
 Growing season length: 121 days 

 Precipitation during growing season       237.6 mm[rain]
   Dry Matter Productivity                  4.29 kg[DM]/m3[rain]          =   42.9 kg[DM]/ha per mm[rain]
   Yield Productivity                       1.23 kg[grain yield]/m3[rain] =   12.3 kg[yield]/ha per mm[rain]

 Evapotranspiration during growing season  269.8 mm[ET]
   Dry Matter Productivity                  3.78 kg[DM]/m3[ET]            =   37.8 kg[DM]/ha per mm[ET]
   Yield Productivity                       1.08 kg[grain yield]/m3[ET]   =   10.8 kg[yield]/ha per mm[ET]

 Transpiration during growing season       160.0 mm[EP]
   Dry Matter Productivity                  6.37 kg[DM]/m3[EP]            =   63.7 kg[DM]/ha per mm[EP]
   Yield Productivity                       1.83 kg[grain yield]/m3[EP]   =   18.3 kg[yield]/ha per mm[EP]

 N applied during growing season            161. kg[N applied]/ha
   Dry Matter Productivity                  63.3 kg[DM]/kg[N applied]
   Yield Productivity                       18.2 kg[yield]/kg[N applied]

 N uptake during growing season              143 kg[N uptake]/ha
   Dry Matter Productivity                  71.2 kg[DM]/kg[N uptake]
   Yield Productivity                       20.4 kg[yield]/kg[N uptake]

--------------------------------------------------------------------------------------------------------------

                     Maize YIELD :     2924 kg/ha    [Dry weight] 

**************************************************************************************************************

*DSSAT Cropping System Model Ver. 4.6.1.000 -release      OCT 02, 2017; 13:56:33
                                                                                
*RUN   4        : P04/17                    MZCER046 ANBU2002    4              
 MODEL          : MZCER046 - Maize                                              
 EXPERIMENT     : ANBU2002 MZ  Analisis a침os de bajo rendimiento Buga          
 DATA PATH      : C:\DSSAT46\maize\                                             
 TREATMENT  4   : P04/17                    MZCER046                            
                                                                                
                                                                                
 CROP           : Maize            CULTIVAR : DK7088           ECOTYPE :IB0001  
 STARTING DATE  : MAR 18 2002                                                   
 PLANTING DATE  : APR 17 2002        PLANTS/m2 :  6.2     ROW SPACING :  80.cm  
 WEATHER        : CUNI   2002                                                   
 SOIL           : CCBUGA2017     TEXTURE : CL    -   Suelo Buga MADR Fase I     
 SOIL INITIAL C : DEPTH: 90cm EXTR. H2O: 83.9mm  NO3:151.4kg/ha  NH4: 62.4kg/ha 
 WATER BALANCE  : RAINFED                                                       
 IRRIGATION     : NOT IRRIGATED                                                 
 NITROGEN BAL.  : SOIL-N & N-UPTAKE SIMULATION; NO N-FIXATION                   
 N-FERTILIZER   :      161 kg/ha IN     5 APPLICATIONS                          
 RESIDUE/MANURE : INITIAL :     0 kg/ha ;       0 kg/ha IN     0 APPLICATIONS   
 ENVIRONM. OPT. : DAYL=    0.00  SRAD=    0.00  TMAX=    0.00  TMIN=    0.00    
                  RAIN=    0.00  CO2 =    0.00  DEW =    0.00  WIND=    0.00    
 SIMULATION OPT : WATER   :Y  NITROGEN:Y  N-FIX:N  PHOSPH :N  PESTS  :N         
                  PHOTO   :C  ET      :R  INFIL:S  HYDROL :R  SOM    :G         
                  CO2 372ppm  NSWIT   :1  EVAP :S  SOIL   :2  STEMP  :D         
 MANAGEMENT OPT : PLANTING:R  IRRIG   :N  FERT :D  RESIDUE:R  HARVEST:M         
                  WEATHER :M  TILLAGE :N                                        
                                                                                
*SUMMARY OF SOIL AND GENETIC INPUT PARAMETERS                                   
                                                                                
   SOIL LOWER UPPER   SAT  EXTR  INIT   ROOT   BULK     pH    NO3    NH4    ORG 
  DEPTH LIMIT LIMIT    SW    SW    SW   DIST   DENS                          C  
   cm   cm3/cm3    cm3/cm3    cm3/cm3         g/cm3         ugN/g  ugN/g     %  
------------------------------------------------------------------------------- 
  0-  5 0.215 0.331 0.341 0.116 0.319   1.00   1.68   6.70  11.90   4.21   0.75 
  5- 15 0.215 0.331 0.341 0.116 0.319   1.00   1.68   6.70  11.90   4.21   0.75 
 15- 25 0.215 0.331 0.341 0.116 0.319   1.00   1.68   6.70  11.90   4.21   0.75 
 25- 35 0.181 0.291 0.364 0.110 0.331   0.50   1.61   7.20  12.15   4.32   0.53 
 35- 45 0.181 0.291 0.364 0.110 0.344   0.50   1.61   7.20  12.40   4.44   0.53 
 45- 67 0.096 0.169 0.404 0.073 0.290   0.27   1.51   7.00  10.67   4.47   0.05 
 67- 90 0.096 0.169 0.404 0.073 0.195   0.27   1.51   7.00   7.63   4.53   0.05 
                                                                                
TOT- 90  13.3  21.7  34.0   8.4  25.6  <--cm   -  kg/ha-->  151.4   62.4  51964 
SOIL ALBEDO    : 0.09      EVAPORATION LIMIT : 6.00         MIN. FACTOR  : 1.00 
RUNOFF CURVE # :76.00      DRAINAGE RATE     : 0.60         FERT. FACTOR : 1.00 
                                                                                
 Maize      CULTIVAR :CI0004-DK7088             ECOTYPE :IB0001                 
 P1     : 229.00  P2     : 0.3000  P5     : 971.00                              
 G2     : 957.00  G3     :  7.500  PHINT  : 45.000                              


*SIMULATED CROP AND SOIL STATUS AT MAIN DEVELOPMENT STAGES

 RUN NO.     4     P04/17                  

        CROP GROWTH     BIOMASS         LEAF   CROP N     STRESS      STRESS                                           
   DATE  AGE STAGE        kg/ha    LAI   NUM  kg/ha  %   H2O  Nitr Phos1 Phos2  RSTG                                   
 ------  --- ----------   -----  -----  ----  ---  ---  ----  ----  ----  ----  ----                                   
 18 MAR    0 Start Sim        0   0.00   0.0    0  0.0  0.00  0.00  0.00  0.00     7
 17 APR    0 Sowing           0   0.00   0.0    0  0.0  0.00  0.00  0.00  0.00     8
 18 APR    1 Germinate        0   0.00   0.0    0  0.0  0.00  0.00  0.00  0.00     9
 23 APR    6 Emergence       25   0.00   2.1    1  4.4  0.00  0.01  0.00  0.00     1
  7 MAY   20 End Juveni     116   0.25   7.8    4  3.3  0.00  0.00  0.00  0.00     2
 14 MAY   27 Floral Ini     402   0.70  10.4   15  3.6  0.00  0.00  0.00  0.00     3
 20 JUN   64 75% Silkin    6986   3.82  21.8  138  2.0  0.00  0.00  0.00  0.00     4
  1 JUL   75 Beg Gr Fil    8465   3.10  21.8  138  1.6  0.48  0.00  0.00  0.00     5
 15 AUG  120 End Gr Fil    9766   0.48  21.8  138  1.4  0.87  0.00  0.00  0.00     6
 18 AUG  123 Maturity      9766   0.48  21.8  138  1.4  0.93  0.00  0.00  0.00    10
 18 AUG  123 Harvest       9766   0.48  21.8  138  1.4  0.00  0.00  0.00  0.00    10


*MAIN GROWTH AND DEVELOPMENT VARIABLES

@     VARIABLE                                         SIMULATED     MEASURED
      --------                                         ---------     --------
      Anthesis day (dap)                                      64          -99
      Physiological maturity day (dap)                       123          -99
      Yield at harvest maturity (kg [dm]/ha)                2793          -99
      Number at maturity (no/m2)                            2379          -99
      Unit wt at maturity (g [dm]/unit)                   0.1174          -99
      Number at maturity (no/unit)                         383.8          -99
      Tops weight at maturity (kg [dm]/ha)                  9766          -99
      By-product produced (stalk) at maturity (kg[dm]/ha    7039          -99
      Leaf area index, maximum                              4.01          -99
      Harvest index at maturity                            0.286          -99
      Grain N at maturity (kg/ha)                             52          -99
      Tops N at maturity (kg/ha)                             138          -99
      Stem N at maturity (kg/ha)                              86          -99
      Grain N at maturity (%)                                1.9          -99
      Tops weight at anthesis (kg [dm]/ha)                  6609          -99
      Tops N at anthesis (kg/ha)                             133          -99
      Leaf number per stem at maturity                     21.83          -99
      Emergence day (dap)                                      6          -99


*ENVIRONMENTAL AND STRESS FACTORS

 |-----Development Phase------|--------------------------------------Environment--------------------------------------|-----------------Stress-----------------|
                              |---------------Average--------------|-----Cumulative-----|--------Count of days--------|          (0=Min, 1=Max Stress)         |
                         Time  Temp  Temp  Temp Solar Photop                Evapo    Pot TMIN TMIN TMAX TMAX TMAX RAIN|----Water----|---Nitrogen--|-Phosphorus-|
                         Span   Max   Min  Mean   Rad  [day]    CO2   Rain  Trans     ET   <    <    >    >    >    >   Photo         Photo         Photo
                         days    邂    邂    邂 MJ/m2     hr    ppm     mm     mm     mm  0邂  2邂 30邂 32邂 34邂  0mm  synth Growth  synth Growth  synth Growth
----------------------------------------------------------------------------------------------------------------------------------------------------------------
 Emergence-End Juvenile    14  28.9  19.5  24.2  14.5  24.00  372.5   64.0   39.1   55.8    0    0    6    0    0    7  0.000  0.000  0.002  0.005  0.000  0.000
 End Juvenil-Floral Init    7  28.2  20.0  24.1  14.0  24.00  372.5    0.3    9.9   25.7    0    0    0    0    0    1  0.000  0.000  0.001  0.002  0.000  0.000
 Floral Init-End Lf Grow   37  30.2  19.0  24.6  15.4  24.00  372.7  110.9  129.4  138.1    0    0   22    6    0   17  0.000  0.001  0.000  0.000  0.000  0.000
 End Lf Grth-Beg Grn Fil   11  28.8  19.4  24.1  17.4  24.00  372.9    7.0   31.1   44.5    0    0    3    0    0    1  0.294  0.408  0.000  0.000  0.000  0.000
 Grain Filling Phase       45  31.1  18.3  24.7  18.3  24.00  373.1   38.4   49.1  206.9    0    0   34   15    3    9  0.829  0.864  0.000  0.000  0.000  0.000


 Planting to Harvest      123  30.0  18.9  24.5  16.5  24.00  372.8  236.6  270.8  508.3    0    0   68   21    3   38  0.351  0.376  0.000  0.001  0.000  0.000
----------------------------------------------------------------------------------------------------------------------------------------------------------------


*Resource Productivity
 Growing season length: 123 days 

 Precipitation during growing season       236.6 mm[rain]
   Dry Matter Productivity                  4.13 kg[DM]/m3[rain]          =   41.3 kg[DM]/ha per mm[rain]
   Yield Productivity                       1.18 kg[grain yield]/m3[rain] =   11.8 kg[yield]/ha per mm[rain]

 Evapotranspiration during growing season  270.8 mm[ET]
   Dry Matter Productivity                  3.61 kg[DM]/m3[ET]            =   36.1 kg[DM]/ha per mm[ET]
   Yield Productivity                       1.03 kg[grain yield]/m3[ET]   =   10.3 kg[yield]/ha per mm[ET]

 Transpiration during growing season       158.4 mm[EP]
   Dry Matter Productivity                  6.17 kg[DM]/m3[EP]            =   61.7 kg[DM]/ha per mm[EP]
   Yield Productivity                       1.76 kg[grain yield]/m3[EP]   =   17.6 kg[yield]/ha per mm[EP]

 N applied during growing season            161. kg[N applied]/ha
   Dry Matter Productivity                  60.7 kg[DM]/kg[N applied]
   Yield Productivity                       17.3 kg[yield]/kg[N applied]

 N uptake during growing season              153 kg[N uptake]/ha
   Dry Matter Productivity                  63.8 kg[DM]/kg[N uptake]
   Yield Productivity                       18.3 kg[yield]/kg[N uptake]

--------------------------------------------------------------------------------------------------------------

                     Maize YIELD :     2793 kg/ha    [Dry weight] 

**************************************************************************************************************

*DSSAT Cropping System Model Ver. 4.6.1.000 -release      OCT 02, 2017; 13:56:33
                                                                                
*RUN   5        : P04/22                    MZCER046 ANBU2002    5              
 MODEL          : MZCER046 - Maize                                              
 EXPERIMENT     : ANBU2002 MZ  Analisis a침os de bajo rendimiento Buga          
 DATA PATH      : C:\DSSAT46\maize\                                             
 TREATMENT  5   : P04/22                    MZCER046                            
                                                                                
                                                                                
 CROP           : Maize            CULTIVAR : DK7088           ECOTYPE :IB0001  
 STARTING DATE  : MAR 23 2002                                                   
 PLANTING DATE  : APR 22 2002        PLANTS/m2 :  6.2     ROW SPACING :  80.cm  
 WEATHER        : CUNI   2002                                                   
 SOIL           : CCBUGA2017     TEXTURE : CL    -   Suelo Buga MADR Fase I     
 SOIL INITIAL C : DEPTH: 90cm EXTR. H2O: 83.9mm  NO3:151.4kg/ha  NH4: 62.4kg/ha 
 WATER BALANCE  : RAINFED                                                       
 IRRIGATION     : NOT IRRIGATED                                                 
 NITROGEN BAL.  : SOIL-N & N-UPTAKE SIMULATION; NO N-FIXATION                   
 N-FERTILIZER   :      161 kg/ha IN     5 APPLICATIONS                          
 RESIDUE/MANURE : INITIAL :     0 kg/ha ;       0 kg/ha IN     0 APPLICATIONS   
 ENVIRONM. OPT. : DAYL=    0.00  SRAD=    0.00  TMAX=    0.00  TMIN=    0.00    
                  RAIN=    0.00  CO2 =    0.00  DEW =    0.00  WIND=    0.00    
 SIMULATION OPT : WATER   :Y  NITROGEN:Y  N-FIX:N  PHOSPH :N  PESTS  :N         
                  PHOTO   :C  ET      :R  INFIL:S  HYDROL :R  SOM    :G         
                  CO2 372ppm  NSWIT   :1  EVAP :S  SOIL   :2  STEMP  :D         
 MANAGEMENT OPT : PLANTING:R  IRRIG   :N  FERT :D  RESIDUE:R  HARVEST:M         
                  WEATHER :M  TILLAGE :N                                        
                                                                                
*SUMMARY OF SOIL AND GENETIC INPUT PARAMETERS                                   
                                                                                
   SOIL LOWER UPPER   SAT  EXTR  INIT   ROOT   BULK     pH    NO3    NH4    ORG 
  DEPTH LIMIT LIMIT    SW    SW    SW   DIST   DENS                          C  
   cm   cm3/cm3    cm3/cm3    cm3/cm3         g/cm3         ugN/g  ugN/g     %  
------------------------------------------------------------------------------- 
  0-  5 0.215 0.331 0.341 0.116 0.319   1.00   1.68   6.70  11.90   4.21   0.75 
  5- 15 0.215 0.331 0.341 0.116 0.319   1.00   1.68   6.70  11.90   4.21   0.75 
 15- 25 0.215 0.331 0.341 0.116 0.319   1.00   1.68   6.70  11.90   4.21   0.75 
 25- 35 0.181 0.291 0.364 0.110 0.331   0.50   1.61   7.20  12.15   4.32   0.53 
 35- 45 0.181 0.291 0.364 0.110 0.344   0.50   1.61   7.20  12.40   4.44   0.53 
 45- 67 0.096 0.169 0.404 0.073 0.290   0.27   1.51   7.00  10.67   4.47   0.05 
 67- 90 0.096 0.169 0.404 0.073 0.195   0.27   1.51   7.00   7.63   4.53   0.05 
                                                                                
TOT- 90  13.3  21.7  34.0   8.4  25.6  <--cm   -  kg/ha-->  151.4   62.4  51964 
SOIL ALBEDO    : 0.09      EVAPORATION LIMIT : 6.00         MIN. FACTOR  : 1.00 
RUNOFF CURVE # :76.00      DRAINAGE RATE     : 0.60         FERT. FACTOR : 1.00 
                                                                                
 Maize      CULTIVAR :CI0004-DK7088             ECOTYPE :IB0001                 
 P1     : 229.00  P2     : 0.3000  P5     : 971.00                              
 G2     : 957.00  G3     :  7.500  PHINT  : 45.000                              


*SIMULATED CROP AND SOIL STATUS AT MAIN DEVELOPMENT STAGES

 RUN NO.     5     P04/22                  

        CROP GROWTH     BIOMASS         LEAF   CROP N     STRESS      STRESS                                           
   DATE  AGE STAGE        kg/ha    LAI   NUM  kg/ha  %   H2O  Nitr Phos1 Phos2  RSTG                                   
 ------  --- ----------   -----  -----  ----  ---  ---  ----  ----  ----  ----  ----                                   
 23 MAR    0 Start Sim        0   0.00   0.0    0  0.0  0.00  0.00  0.00  0.00     7
 22 APR    0 Sowing           0   0.00   0.0    0  0.0  0.00  0.00  0.00  0.00     8
 23 APR    1 Germinate        0   0.00   0.0    0  0.0  0.00  0.00  0.00  0.00     9
 28 APR    6 Emergence       25   0.00   2.1    1  4.4  0.00  0.01  0.00  0.00     1
 12 MAY   20 End Juveni     139   0.29   7.9    5  3.4  0.00  0.00  0.00  0.00     2
 19 MAY   27 Floral Ini     436   0.75  10.4   16  3.6  0.00  0.00  0.00  0.00     3
 25 JUN   64 75% Silkin    6957   3.80  21.6  139  2.0  0.03  0.00  0.00  0.00     4
  5 JUL   74 Beg Gr Fil    7883   2.91  21.6  140  1.8  0.61  0.00  0.00  0.00     5
 20 AUG  120 End Gr Fil    9228   0.43  21.6  140  1.5  0.87  0.00  0.00  0.00     6
 22 AUG  122 Maturity      9228   0.43  21.6  140  1.5  1.00  0.00  0.00  0.00    10
 22 AUG  122 Harvest       9228   0.43  21.6  140  1.5  0.00  0.00  0.00  0.00    10


*MAIN GROWTH AND DEVELOPMENT VARIABLES

@     VARIABLE                                         SIMULATED     MEASURED
      --------                                         ---------     --------
      Anthesis day (dap)                                      64          -99
      Physiological maturity day (dap)                       122          -99
      Yield at harvest maturity (kg [dm]/ha)                2664          -99
      Number at maturity (no/m2)                            1798          -99
      Unit wt at maturity (g [dm]/unit)                   0.1482          -99
      Number at maturity (no/unit)                         290.0          -99
      Tops weight at maturity (kg [dm]/ha)                  9228          -99
      By-product produced (stalk) at maturity (kg[dm]/ha    6628          -99
      Leaf area index, maximum                              3.97          -99
      Harvest index at maturity                            0.289          -99
      Grain N at maturity (kg/ha)                             50          -99
      Tops N at maturity (kg/ha)                             140          -99
      Stem N at maturity (kg/ha)                              91          -99
      Grain N at maturity (%)                                1.9          -99
      Tops weight at anthesis (kg [dm]/ha)                  6774          -99
      Tops N at anthesis (kg/ha)                             135          -99
      Leaf number per stem at maturity                     21.57          -99
      Emergence day (dap)                                      6          -99


*ENVIRONMENTAL AND STRESS FACTORS

 |-----Development Phase------|--------------------------------------Environment--------------------------------------|-----------------Stress-----------------|
                              |---------------Average--------------|-----Cumulative-----|--------Count of days--------|          (0=Min, 1=Max Stress)         |
                         Time  Temp  Temp  Temp Solar Photop                Evapo    Pot TMIN TMIN TMAX TMAX TMAX RAIN|----Water----|---Nitrogen--|-Phosphorus-|
                         Span   Max   Min  Mean   Rad  [day]    CO2   Rain  Trans     ET   <    <    >    >    >    >   Photo         Photo         Photo
                         days    邂    邂    邂 MJ/m2     hr    ppm     mm     mm     mm  0邂  2邂 30邂 32邂 34邂  0mm  synth Growth  synth Growth  synth Growth
----------------------------------------------------------------------------------------------------------------------------------------------------------------
 Emergence-End Juvenile    14  28.9  19.6  24.2  14.9  24.00  372.5    7.3   27.4   56.7    0    0    4    0    0    3  0.000  0.000  0.002  0.005  0.000  0.000
 End Juvenil-Floral Init    7  27.9  20.3  24.1  13.3  24.00  372.6    8.3    9.5   24.2    0    0    1    0    0    2  0.000  0.000  0.001  0.002  0.000  0.000
 Floral Init-End Lf Grow   37  30.3  18.9  24.6  16.0  24.00  372.8  102.6  137.8  143.8    0    0   23    6    0   15  0.001  0.010  0.000  0.000  0.000  0.000
 End Lf Grth-Beg Grn Fil   10  29.4  19.2  24.3  17.8  24.00  372.9    7.0   21.7   41.7    0    0    5    1    0    1  0.484  0.590  0.000  0.000  0.000  0.000
 Grain Filling Phase       46  31.0  18.2  24.6  18.2  24.00  373.1   38.4   49.7  210.6    0    0   32   15    4    9  0.826  0.863  0.000  0.000  0.000  0.000


 Planting to Harvest      122  30.2  18.9  24.5  16.7  24.00  372.9  220.6  266.6  510.6    0    0   70   24    4   35  0.368  0.393  0.000  0.001  0.000  0.000
----------------------------------------------------------------------------------------------------------------------------------------------------------------


*Resource Productivity
 Growing season length: 122 days 

 Precipitation during growing season       220.6 mm[rain]
   Dry Matter Productivity                  4.18 kg[DM]/m3[rain]          =   41.8 kg[DM]/ha per mm[rain]
   Yield Productivity                       1.21 kg[grain yield]/m3[rain] =   12.1 kg[yield]/ha per mm[rain]

 Evapotranspiration during growing season  266.6 mm[ET]
   Dry Matter Productivity                  3.46 kg[DM]/m3[ET]            =   34.6 kg[DM]/ha per mm[ET]
   Yield Productivity                       1.00 kg[grain yield]/m3[ET]   =   10.0 kg[yield]/ha per mm[ET]

 Transpiration during growing season       152.6 mm[EP]
   Dry Matter Productivity                  6.05 kg[DM]/m3[EP]            =   60.5 kg[DM]/ha per mm[EP]
   Yield Productivity                       1.75 kg[grain yield]/m3[EP]   =   17.5 kg[yield]/ha per mm[EP]

 N applied during growing season            161. kg[N applied]/ha
   Dry Matter Productivity                  57.3 kg[DM]/kg[N applied]
   Yield Productivity                       16.5 kg[yield]/kg[N applied]

 N uptake during growing season              157 kg[N uptake]/ha
   Dry Matter Productivity                  58.8 kg[DM]/kg[N uptake]
   Yield Productivity                       17.0 kg[yield]/kg[N uptake]

--------------------------------------------------------------------------------------------------------------

                     Maize YIELD :     2664 kg/ha    [Dry weight] 

**************************************************************************************************************

*DSSAT Cropping System Model Ver. 4.6.1.000 -release      OCT 02, 2017; 13:56:33
                                                                                
*RUN   6        : P04/27                    MZCER046 ANBU2002    6              
 MODEL          : MZCER046 - Maize                                              
 EXPERIMENT     : ANBU2002 MZ  Analisis a침os de bajo rendimiento Buga          
 DATA PATH      : C:\DSSAT46\maize\                                             
 TREATMENT  6   : P04/27                    MZCER046                            
                                                                                
                                                                                
 CROP           : Maize            CULTIVAR : DK7088           ECOTYPE :IB0001  
 STARTING DATE  : MAR 28 2002                                                   
 PLANTING DATE  : APR 27 2002        PLANTS/m2 :  6.2     ROW SPACING :  80.cm  
 WEATHER        : CUNI   2002                                                   
 SOIL           : CCBUGA2017     TEXTURE : CL    -   Suelo Buga MADR Fase I     
 SOIL INITIAL C : DEPTH: 90cm EXTR. H2O: 83.9mm  NO3:151.4kg/ha  NH4: 62.4kg/ha 
 WATER BALANCE  : RAINFED                                                       
 IRRIGATION     : NOT IRRIGATED                                                 
 NITROGEN BAL.  : SOIL-N & N-UPTAKE SIMULATION; NO N-FIXATION                   
 N-FERTILIZER   :      161 kg/ha IN     5 APPLICATIONS                          
 RESIDUE/MANURE : INITIAL :     0 kg/ha ;       0 kg/ha IN     0 APPLICATIONS   
 ENVIRONM. OPT. : DAYL=    0.00  SRAD=    0.00  TMAX=    0.00  TMIN=    0.00    
                  RAIN=    0.00  CO2 =    0.00  DEW =    0.00  WIND=    0.00    
 SIMULATION OPT : WATER   :Y  NITROGEN:Y  N-FIX:N  PHOSPH :N  PESTS  :N         
                  PHOTO   :C  ET      :R  INFIL:S  HYDROL :R  SOM    :G         
                  CO2 372ppm  NSWIT   :1  EVAP :S  SOIL   :2  STEMP  :D         
 MANAGEMENT OPT : PLANTING:R  IRRIG   :N  FERT :D  RESIDUE:R  HARVEST:M         
                  WEATHER :M  TILLAGE :N                                        
                                                                                
*SUMMARY OF SOIL AND GENETIC INPUT PARAMETERS                                   
                                                                                
   SOIL LOWER UPPER   SAT  EXTR  INIT   ROOT   BULK     pH    NO3    NH4    ORG 
  DEPTH LIMIT LIMIT    SW    SW    SW   DIST   DENS                          C  
   cm   cm3/cm3    cm3/cm3    cm3/cm3         g/cm3         ugN/g  ugN/g     %  
------------------------------------------------------------------------------- 
  0-  5 0.215 0.331 0.341 0.116 0.319   1.00   1.68   6.70  11.90   4.21   0.75 
  5- 15 0.215 0.331 0.341 0.116 0.319   1.00   1.68   6.70  11.90   4.21   0.75 
 15- 25 0.215 0.331 0.341 0.116 0.319   1.00   1.68   6.70  11.90   4.21   0.75 
 25- 35 0.181 0.291 0.364 0.110 0.331   0.50   1.61   7.20  12.15   4.32   0.53 
 35- 45 0.181 0.291 0.364 0.110 0.344   0.50   1.61   7.20  12.40   4.44   0.53 
 45- 67 0.096 0.169 0.404 0.073 0.290   0.27   1.51   7.00  10.67   4.47   0.05 
 67- 90 0.096 0.169 0.404 0.073 0.195   0.27   1.51   7.00   7.63   4.53   0.05 
                                                                                
TOT- 90  13.3  21.7  34.0   8.4  25.6  <--cm   -  kg/ha-->  151.4   62.4  51964 
SOIL ALBEDO    : 0.09      EVAPORATION LIMIT : 6.00         MIN. FACTOR  : 1.00 
RUNOFF CURVE # :76.00      DRAINAGE RATE     : 0.60         FERT. FACTOR : 1.00 
                                                                                
 Maize      CULTIVAR :CI0004-DK7088             ECOTYPE :IB0001                 
 P1     : 229.00  P2     : 0.3000  P5     : 971.00                              
 G2     : 957.00  G3     :  7.500  PHINT  : 45.000                              


*SIMULATED CROP AND SOIL STATUS AT MAIN DEVELOPMENT STAGES

 RUN NO.     6     P04/27                  

        CROP GROWTH     BIOMASS         LEAF   CROP N     STRESS      STRESS                                           
   DATE  AGE STAGE        kg/ha    LAI   NUM  kg/ha  %   H2O  Nitr Phos1 Phos2  RSTG                                   
 ------  --- ----------   -----  -----  ----  ---  ---  ----  ----  ----  ----  ----                                   
 28 MAR    0 Start Sim        0   0.00   0.0    0  0.0  0.00  0.00  0.00  0.00     7
 27 APR    0 Sowing           0   0.00   0.0    0  0.0  0.00  0.00  0.00  0.00     8
 28 APR    1 Germinate        0   0.00   0.0    0  0.0  0.00  0.00  0.00  0.00     9
  3 MAY    6 Emergence       25   0.00   2.1    1  4.4  0.00  0.01  0.00  0.00     1
 17 MAY   20 End Juveni     130   0.27   7.7    4  3.4  0.00  0.00  0.00  0.00     2
 24 MAY   27 Floral Ini     389   0.68  10.5   14  3.6  0.02  0.00  0.00  0.00     3
 30 JUN   64 75% Silkin    6786   3.61  21.9  138  2.0  0.02  0.00  0.00  0.00     4
 11 JUL   75 Beg Gr Fil    7282   2.47  21.9  138  1.9  0.78  0.00  0.00  0.00     5
 25 AUG  120 End Gr Fil    8474   0.37  21.9  138  1.6  0.87  0.00  0.00  0.00     6
 28 AUG  123 Maturity      8474   0.37  21.9  138  1.6  0.92  0.00  0.00  0.00    10
 28 AUG  123 Harvest       8474   0.37  21.9  138  1.6  0.00  0.00  0.00  0.00    10


*MAIN GROWTH AND DEVELOPMENT VARIABLES

@     VARIABLE                                         SIMULATED     MEASURED
      --------                                         ---------     --------
      Anthesis day (dap)                                      64          -99
      Physiological maturity day (dap)                       123          -99
      Yield at harvest maturity (kg [dm]/ha)                2560          -99
      Number at maturity (no/m2)                            1491          -99
      Unit wt at maturity (g [dm]/unit)                   0.1716          -99
      Number at maturity (no/unit)                         240.6          -99
      Tops weight at maturity (kg [dm]/ha)                  8474          -99
      By-product produced (stalk) at maturity (kg[dm]/ha    5976          -99
      Leaf area index, maximum                              3.73          -99
      Harvest index at maturity                            0.302          -99
      Grain N at maturity (kg/ha)                             48          -99
      Tops N at maturity (kg/ha)                             138          -99
      Stem N at maturity (kg/ha)                              90          -99
      Grain N at maturity (%)                                1.9          -99
      Tops weight at anthesis (kg [dm]/ha)                  6413          -99
      Tops N at anthesis (kg/ha)                             132          -99
      Leaf number per stem at maturity                     21.90          -99
      Emergence day (dap)                                      6          -99


*ENVIRONMENTAL AND STRESS FACTORS

 |-----Development Phase------|--------------------------------------Environment--------------------------------------|-----------------Stress-----------------|
                              |---------------Average--------------|-----Cumulative-----|--------Count of days--------|          (0=Min, 1=Max Stress)         |
                         Time  Temp  Temp  Temp Solar Photop                Evapo    Pot TMIN TMIN TMAX TMAX TMAX RAIN|----Water----|---Nitrogen--|-Phosphorus-|
                         Span   Max   Min  Mean   Rad  [day]    CO2   Rain  Trans     ET   <    <    >    >    >    >   Photo         Photo         Photo
                         days    邂    邂    邂 MJ/m2     hr    ppm     mm     mm     mm  0邂  2邂 30邂 32邂 34邂  0mm  synth Growth  synth Growth  synth Growth
----------------------------------------------------------------------------------------------------------------------------------------------------------------
 Emergence-End Juvenile    14  28.1  20.0  24.1  14.3  24.00  372.5    1.6   11.8   53.9    0    0    1    0    0    2  0.000  0.000  0.003  0.007  0.000  0.000
 End Juvenil-Floral Init    7  29.5  19.7  24.6  12.9  24.00  372.7   28.2   14.1   24.0    0    0    3    1    0    4  0.000  0.017  0.001  0.001  0.000  0.000
 Floral Init-End Lf Grow   37  30.1  18.8  24.5  16.4  24.00  372.8   88.4  135.7  147.7    0    0   22    5    0   13  0.007  0.018  0.000  0.000  0.000  0.000
 End Lf Grth-Beg Grn Fil   11  30.3  18.9  24.6  17.4  24.00  372.9    4.2   21.0   45.3    0    0    7    2    0    3  0.598  0.710  0.000  0.000  0.000  0.000
 Grain Filling Phase       45  31.2  18.3  24.7  18.7  24.00  373.2   35.7   47.1  214.1    0    0   33   16    4    7  0.839  0.871  0.000  0.000  0.000  0.000


 Planting to Harvest      123  30.2  18.9  24.5  16.8  24.00  372.9  181.1  253.6  522.5    0    0   71   24    4   35  0.385  0.412  0.000  0.001  0.000  0.000
----------------------------------------------------------------------------------------------------------------------------------------------------------------


*Resource Productivity
 Growing season length: 123 days 

 Precipitation during growing season       181.1 mm[rain]
   Dry Matter Productivity                  4.68 kg[DM]/m3[rain]          =   46.8 kg[DM]/ha per mm[rain]
   Yield Productivity                       1.41 kg[grain yield]/m3[rain] =   14.1 kg[yield]/ha per mm[rain]

 Evapotranspiration during growing season  253.6 mm[ET]
   Dry Matter Productivity                  3.34 kg[DM]/m3[ET]            =   33.4 kg[DM]/ha per mm[ET]
   Yield Productivity                       1.01 kg[grain yield]/m3[ET]   =   10.1 kg[yield]/ha per mm[ET]

 Transpiration during growing season       146.4 mm[EP]
   Dry Matter Productivity                  5.79 kg[DM]/m3[EP]            =   57.9 kg[DM]/ha per mm[EP]
   Yield Productivity                       1.75 kg[grain yield]/m3[EP]   =   17.5 kg[yield]/ha per mm[EP]

 N applied during growing season            161. kg[N applied]/ha
   Dry Matter Productivity                  52.6 kg[DM]/kg[N applied]
   Yield Productivity                       15.9 kg[yield]/kg[N applied]

 N uptake during growing season              154 kg[N uptake]/ha
   Dry Matter Productivity                  55.0 kg[DM]/kg[N uptake]
   Yield Productivity                       16.6 kg[yield]/kg[N uptake]

--------------------------------------------------------------------------------------------------------------

                     Maize YIELD :     2560 kg/ha    [Dry weight] 

**************************************************************************************************************

*DSSAT Cropping System Model Ver. 4.6.1.000 -release      OCT 02, 2017; 13:56:33
                                                                                
*RUN   7        : P05/02                    MZCER046 ANBU2002    7              
 MODEL          : MZCER046 - Maize                                              
 EXPERIMENT     : ANBU2002 MZ  Analisis a침os de bajo rendimiento Buga          
 DATA PATH      : C:\DSSAT46\maize\                                             
 TREATMENT  7   : P05/02                    MZCER046                            
                                                                                
                                                                                
 CROP           : Maize            CULTIVAR : DK7088           ECOTYPE :IB0001  
 STARTING DATE  : APR  2 2002                                                   
 PLANTING DATE  : MAY  2 2002        PLANTS/m2 :  6.2     ROW SPACING :  80.cm  
 WEATHER        : CUNI   2002                                                   
 SOIL           : CCBUGA2017     TEXTURE : CL    -   Suelo Buga MADR Fase I     
 SOIL INITIAL C : DEPTH: 90cm EXTR. H2O: 83.9mm  NO3:151.4kg/ha  NH4: 62.4kg/ha 
 WATER BALANCE  : RAINFED                                                       
 IRRIGATION     : NOT IRRIGATED                                                 
 NITROGEN BAL.  : SOIL-N & N-UPTAKE SIMULATION; NO N-FIXATION                   
 N-FERTILIZER   :      161 kg/ha IN     5 APPLICATIONS                          
 RESIDUE/MANURE : INITIAL :     0 kg/ha ;       0 kg/ha IN     0 APPLICATIONS   
 ENVIRONM. OPT. : DAYL=    0.00  SRAD=    0.00  TMAX=    0.00  TMIN=    0.00    
                  RAIN=    0.00  CO2 =    0.00  DEW =    0.00  WIND=    0.00    
 SIMULATION OPT : WATER   :Y  NITROGEN:Y  N-FIX:N  PHOSPH :N  PESTS  :N         
                  PHOTO   :C  ET      :R  INFIL:S  HYDROL :R  SOM    :G         
                  CO2 372ppm  NSWIT   :1  EVAP :S  SOIL   :2  STEMP  :D         
 MANAGEMENT OPT : PLANTING:R  IRRIG   :N  FERT :D  RESIDUE:R  HARVEST:M         
                  WEATHER :M  TILLAGE :N                                        
                                                                                
*SUMMARY OF SOIL AND GENETIC INPUT PARAMETERS                                   
                                                                                
   SOIL LOWER UPPER   SAT  EXTR  INIT   ROOT   BULK     pH    NO3    NH4    ORG 
  DEPTH LIMIT LIMIT    SW    SW    SW   DIST   DENS                          C  
   cm   cm3/cm3    cm3/cm3    cm3/cm3         g/cm3         ugN/g  ugN/g     %  
------------------------------------------------------------------------------- 
  0-  5 0.215 0.331 0.341 0.116 0.319   1.00   1.68   6.70  11.90   4.21   0.75 
  5- 15 0.215 0.331 0.341 0.116 0.319   1.00   1.68   6.70  11.90   4.21   0.75 
 15- 25 0.215 0.331 0.341 0.116 0.319   1.00   1.68   6.70  11.90   4.21   0.75 
 25- 35 0.181 0.291 0.364 0.110 0.331   0.50   1.61   7.20  12.15   4.32   0.53 
 35- 45 0.181 0.291 0.364 0.110 0.344   0.50   1.61   7.20  12.40   4.44   0.53 
 45- 67 0.096 0.169 0.404 0.073 0.290   0.27   1.51   7.00  10.67   4.47   0.05 
 67- 90 0.096 0.169 0.404 0.073 0.195   0.27   1.51   7.00   7.63   4.53   0.05 
                                                                                
TOT- 90  13.3  21.7  34.0   8.4  25.6  <--cm   -  kg/ha-->  151.4   62.4  51964 
SOIL ALBEDO    : 0.09      EVAPORATION LIMIT : 6.00         MIN. FACTOR  : 1.00 
RUNOFF CURVE # :76.00      DRAINAGE RATE     : 0.60         FERT. FACTOR : 1.00 
                                                                                
 Maize      CULTIVAR :CI0004-DK7088             ECOTYPE :IB0001                 
 P1     : 229.00  P2     : 0.3000  P5     : 971.00                              
 G2     : 957.00  G3     :  7.500  PHINT  : 45.000                              


*SIMULATED CROP AND SOIL STATUS AT MAIN DEVELOPMENT STAGES

 RUN NO.     7     P05/02                  

        CROP GROWTH     BIOMASS         LEAF   CROP N     STRESS      STRESS                                           
   DATE  AGE STAGE        kg/ha    LAI   NUM  kg/ha  %   H2O  Nitr Phos1 Phos2  RSTG                                   
 ------  --- ----------   -----  -----  ----  ---  ---  ----  ----  ----  ----  ----                                   
  2 APR    0 Start Sim        0   0.00   0.0    0  0.0  0.00  0.00  0.00  0.00     7
  2 MAY    0 Sowing           0   0.00   0.0    0  0.0  0.00  0.00  0.00  0.00     8
  3 MAY    1 Germinate        0   0.00   0.0    0  0.0  0.00  0.00  0.00  0.00     9
  8 MAY    6 Emergence       25   0.00   2.1    1  4.4  0.00  0.01  0.00  0.00     1
 22 MAY   20 End Juveni     124   0.26   7.8    4  3.6  0.02  0.00  0.00  0.00     2
 29 MAY   27 Floral Ini     299   0.55  10.5   11  3.6  0.00  0.00  0.00  0.00     3
  5 JUL   64 75% Silkin    5740   2.95  21.9  124  2.2  0.13  0.00  0.00  0.00     4
 15 JUL   74 Beg Gr Fil    5924   1.98  21.9  124  2.1  0.85  0.00  0.00  0.00     5
 29 AUG  119 End Gr Fil    6916   0.32  21.9  124  1.8  0.84  0.00  0.00  0.00     6
  1 SEP  122 Maturity      6916   0.32  21.9  124  1.8  0.57  0.00  0.00  0.00    10
  1 SEP  122 Harvest       6916   0.32  21.9  124  1.8  0.00  0.00  0.00  0.00    10


*MAIN GROWTH AND DEVELOPMENT VARIABLES

@     VARIABLE                                         SIMULATED     MEASURED
      --------                                         ---------     --------
      Anthesis day (dap)                                      64          -99
      Physiological maturity day (dap)                       122          -99
      Yield at harvest maturity (kg [dm]/ha)                1740          -99
      Number at maturity (no/m2)                             935          -99
      Unit wt at maturity (g [dm]/unit)                   0.1862          -99
      Number at maturity (no/unit)                         150.7          -99
      Tops weight at maturity (kg [dm]/ha)                  6916          -99
      By-product produced (stalk) at maturity (kg[dm]/ha    5231          -99
      Leaf area index, maximum                              3.37          -99
      Harvest index at maturity                            0.252          -99
      Grain N at maturity (kg/ha)                             33          -99
      Tops N at maturity (kg/ha)                             124          -99
      Stem N at maturity (kg/ha)                              92          -99
      Grain N at maturity (%)                                1.9          -99
      Tops weight at anthesis (kg [dm]/ha)                  5677          -99
      Tops N at anthesis (kg/ha)                             124          -99
      Leaf number per stem at maturity                     21.91          -99
      Emergence day (dap)                                      6          -99


*ENVIRONMENTAL AND STRESS FACTORS

 |-----Development Phase------|--------------------------------------Environment--------------------------------------|-----------------Stress-----------------|
                              |---------------Average--------------|-----Cumulative-----|--------Count of days--------|          (0=Min, 1=Max Stress)         |
                         Time  Temp  Temp  Temp Solar Photop                Evapo    Pot TMIN TMIN TMAX TMAX TMAX RAIN|----Water----|---Nitrogen--|-Phosphorus-|
                         Span   Max   Min  Mean   Rad  [day]    CO2   Rain  Trans     ET   <    <    >    >    >    >   Photo         Photo         Photo
                         days    邂    邂    邂 MJ/m2     hr    ppm     mm     mm     mm  0邂  2邂 30邂 32邂 34邂  0mm  synth Growth  synth Growth  synth Growth
----------------------------------------------------------------------------------------------------------------------------------------------------------------
 Emergence-End Juvenile    14  28.5  20.1  24.3  13.6  24.00  372.6   22.6   13.4   51.5    0    0    2    0    0    5  0.000  0.019  0.003  0.006  0.000  0.000
 End Juvenil-Floral Init    7  30.4  18.6  24.5  15.4  24.00  372.7   22.2   21.8   29.0    0    0    4    2    0    3  0.000  0.000  0.001  0.002  0.000  0.000
 Floral Init-End Lf Grow   37  30.1  19.0  24.5  16.9  24.00  372.8   73.4  128.5  152.0    0    0   23    5    0   11  0.079  0.111  0.000  0.000  0.000  0.000
 End Lf Grth-Beg Grn Fil   10  30.8  18.5  24.6  17.1  24.00  372.9    6.6   14.2   41.2    0    0    6    3    0    4  0.745  0.831  0.000  0.000  0.000  0.000
 Grain Filling Phase       45  31.0  18.4  24.7  18.4  24.00  373.2   43.5   47.2  212.8    0    0   32   14    4   10  0.818  0.850  0.000  0.000  0.000  0.000


 Planting to Harvest      122  30.3  18.8  24.6  16.9  23.95  372.9  171.5  235.9  525.7    0    0   72   26    4   34  0.393  0.427  0.000  0.001  0.000  0.000
----------------------------------------------------------------------------------------------------------------------------------------------------------------


*Resource Productivity
 Growing season length: 122 days 

 Precipitation during growing season       171.5 mm[rain]
   Dry Matter Productivity                  4.03 kg[DM]/m3[rain]          =   40.3 kg[DM]/ha per mm[rain]
   Yield Productivity                       1.01 kg[grain yield]/m3[rain] =   10.1 kg[yield]/ha per mm[rain]

 Evapotranspiration during growing season  235.9 mm[ET]
   Dry Matter Productivity                  2.93 kg[DM]/m3[ET]            =   29.3 kg[DM]/ha per mm[ET]
   Yield Productivity                       0.74 kg[grain yield]/m3[ET]   =    7.4 kg[yield]/ha per mm[ET]

 Transpiration during growing season       128.4 mm[EP]
   Dry Matter Productivity                  5.38 kg[DM]/m3[EP]            =   53.8 kg[DM]/ha per mm[EP]
   Yield Productivity                       1.35 kg[grain yield]/m3[EP]   =   13.5 kg[yield]/ha per mm[EP]

 N applied during growing season            161. kg[N applied]/ha
   Dry Matter Productivity                  43.0 kg[DM]/kg[N applied]
   Yield Productivity                       10.8 kg[yield]/kg[N applied]

 N uptake during growing season              139 kg[N uptake]/ha
   Dry Matter Productivity                  49.8 kg[DM]/kg[N uptake]
   Yield Productivity                       12.5 kg[yield]/kg[N uptake]

--------------------------------------------------------------------------------------------------------------

                     Maize YIELD :     1740 kg/ha    [Dry weight] 

**************************************************************************************************************

*DSSAT Cropping System Model Ver. 4.6.1.000 -release      OCT 02, 2017; 13:56:33
                                                                                
*RUN   8        : P05/07                    MZCER046 ANBU2002    8              
 MODEL          : MZCER046 - Maize                                              
 EXPERIMENT     : ANBU2002 MZ  Analisis a침os de bajo rendimiento Buga          
 DATA PATH      : C:\DSSAT46\maize\                                             
 TREATMENT  8   : P05/07                    MZCER046                            
                                                                                
                                                                                
 CROP           : Maize            CULTIVAR : DK7088           ECOTYPE :IB0001  
 STARTING DATE  : APR  7 2002                                                   
 PLANTING DATE  : MAY  7 2002        PLANTS/m2 :  6.2     ROW SPACING :  80.cm  
 WEATHER        : CUNI   2002                                                   
 SOIL           : CCBUGA2017     TEXTURE : CL    -   Suelo Buga MADR Fase I     
 SOIL INITIAL C : DEPTH: 90cm EXTR. H2O: 83.9mm  NO3:151.4kg/ha  NH4: 62.4kg/ha 
 WATER BALANCE  : RAINFED                                                       
 IRRIGATION     : NOT IRRIGATED                                                 
 NITROGEN BAL.  : SOIL-N & N-UPTAKE SIMULATION; NO N-FIXATION                   
 N-FERTILIZER   :      161 kg/ha IN     5 APPLICATIONS                          
 RESIDUE/MANURE : INITIAL :     0 kg/ha ;       0 kg/ha IN     0 APPLICATIONS   
 ENVIRONM. OPT. : DAYL=    0.00  SRAD=    0.00  TMAX=    0.00  TMIN=    0.00    
                  RAIN=    0.00  CO2 =    0.00  DEW =    0.00  WIND=    0.00    
 SIMULATION OPT : WATER   :Y  NITROGEN:Y  N-FIX:N  PHOSPH :N  PESTS  :N         
                  PHOTO   :C  ET      :R  INFIL:S  HYDROL :R  SOM    :G         
                  CO2 372ppm  NSWIT   :1  EVAP :S  SOIL   :2  STEMP  :D         
 MANAGEMENT OPT : PLANTING:R  IRRIG   :N  FERT :D  RESIDUE:R  HARVEST:M         
                  WEATHER :M  TILLAGE :N                                        
                                                                                
*SUMMARY OF SOIL AND GENETIC INPUT PARAMETERS                                   
                                                                                
   SOIL LOWER UPPER   SAT  EXTR  INIT   ROOT   BULK     pH    NO3    NH4    ORG 
  DEPTH LIMIT LIMIT    SW    SW    SW   DIST   DENS                          C  
   cm   cm3/cm3    cm3/cm3    cm3/cm3         g/cm3         ugN/g  ugN/g     %  
------------------------------------------------------------------------------- 
  0-  5 0.215 0.331 0.341 0.116 0.319   1.00   1.68   6.70  11.90   4.21   0.75 
  5- 15 0.215 0.331 0.341 0.116 0.319   1.00   1.68   6.70  11.90   4.21   0.75 
 15- 25 0.215 0.331 0.341 0.116 0.319   1.00   1.68   6.70  11.90   4.21   0.75 
 25- 35 0.181 0.291 0.364 0.110 0.331   0.50   1.61   7.20  12.15   4.32   0.53 
 35- 45 0.181 0.291 0.364 0.110 0.344   0.50   1.61   7.20  12.40   4.44   0.53 
 45- 67 0.096 0.169 0.404 0.073 0.290   0.27   1.51   7.00  10.67   4.47   0.05 
 67- 90 0.096 0.169 0.404 0.073 0.195   0.27   1.51   7.00   7.63   4.53   0.05 
                                                                                
TOT- 90  13.3  21.7  34.0   8.4  25.6  <--cm   -  kg/ha-->  151.4   62.4  51964 
SOIL ALBEDO    : 0.09      EVAPORATION LIMIT : 6.00         MIN. FACTOR  : 1.00 
RUNOFF CURVE # :76.00      DRAINAGE RATE     : 0.60         FERT. FACTOR : 1.00 
                                                                                
 Maize      CULTIVAR :CI0004-DK7088             ECOTYPE :IB0001                 
 P1     : 229.00  P2     : 0.3000  P5     : 971.00                              
 G2     : 957.00  G3     :  7.500  PHINT  : 45.000                              


*SIMULATED CROP AND SOIL STATUS AT MAIN DEVELOPMENT STAGES

 RUN NO.     8     P05/07                  

        CROP GROWTH     BIOMASS         LEAF   CROP N     STRESS      STRESS                                           
   DATE  AGE STAGE        kg/ha    LAI   NUM  kg/ha  %   H2O  Nitr Phos1 Phos2  RSTG                                   
 ------  --- ----------   -----  -----  ----  ---  ---  ----  ----  ----  ----  ----                                   
  7 APR    0 Start Sim        0   0.00   0.0    0  0.0  0.00  0.00  0.00  0.00     7
  7 MAY    0 Sowing           0   0.00   0.0    0  0.0  0.00  0.00  0.00  0.00     8
  8 MAY    1 Germinate        0   0.00   0.0    0  0.0  0.00  0.00  0.00  0.00     9
 13 MAY    6 Emergence       25   0.00   2.0    1  4.4  0.00  0.01  0.00  0.00     1
 27 MAY   20 End Juveni      94   0.20   7.9    3  3.5  0.00  0.01  0.00  0.00     2
  3 JUN   27 Floral Ini     303   0.55  10.5   11  3.6  0.00  0.00  0.00  0.00     3
 10 JUL   64 75% Silkin    4755   2.30  22.0  109  2.3  0.24  0.00  0.00  0.00     4
 20 JUL   74 Beg Gr Fil    4878   1.55  22.0  109  2.2  0.82  0.00  0.00  0.00     5
  3 SEP  119 End Gr Fil    5905   0.28  22.0  109  1.8  0.78  0.00  0.00  0.00     6
  6 SEP  122 Maturity      5905   0.28  22.0  109  1.8  0.93  0.00  0.00  0.00    10
[...]
 NITROGEN BAL.  : SOIL-N & N-UPTAKE SIMULATION; NO N-FIXATION                   
 N-FERTILIZER   :      161 kg/ha IN     5 APPLICATIONS                          
 RESIDUE/MANURE : INITIAL :     0 kg/ha ;       0 kg/ha IN     0 APPLICATIONS   
 ENVIRONM. OPT. : DAYL=    0.00  SRAD=    0.00  TMAX=    0.00  TMIN=    0.00    
                  RAIN=    0.00  CO2 =    0.00  DEW =    0.00  WIND=    0.00    
 SIMULATION OPT : WATER   :Y  NITROGEN:Y  N-FIX:N  PHOSPH :N  PESTS  :N         
                  PHOTO   :C  ET      :R  INFIL:S  HYDROL :R  SOM    :G         
                  CO2 374ppm  NSWIT   :1  EVAP :S  SOIL   :2  STEMP  :D         
 MANAGEMENT OPT : PLANTING:R  IRRIG   :N  FERT :D  RESIDUE:R  HARVEST:M         
                  WEATHER :M  TILLAGE :N                                        
                                                                                
*SUMMARY OF SOIL AND GENETIC INPUT PARAMETERS                                   
                                                                                
   SOIL LOWER UPPER   SAT  EXTR  INIT   ROOT   BULK     pH    NO3    NH4    ORG 
  DEPTH LIMIT LIMIT    SW    SW    SW   DIST   DENS                          C  
   cm   cm3/cm3    cm3/cm3    cm3/cm3         g/cm3         ugN/g  ugN/g     %  
------------------------------------------------------------------------------- 
  0-  5 0.215 0.331 0.341 0.116 0.319   1.00   1.68   6.70  11.90   4.21   0.75 
  5- 15 0.215 0.331 0.341 0.116 0.319   1.00   1.68   6.70  11.90   4.21   0.75 
 15- 25 0.215 0.331 0.341 0.116 0.319   1.00   1.68   6.70  11.90   4.21   0.75 
 25- 35 0.181 0.291 0.364 0.110 0.331   0.50   1.61   7.20  12.15   4.32   0.53 
 35- 45 0.181 0.291 0.364 0.110 0.344   0.50   1.61   7.20  12.40   4.44   0.53 
 45- 67 0.096 0.169 0.404 0.073 0.290   0.27   1.51   7.00  10.67   4.47   0.05 
 67- 90 0.096 0.169 0.404 0.073 0.195   0.27   1.51   7.00   7.63   4.53   0.05 
                                                                                
TOT- 90  13.3  21.7  34.0   8.4  25.6  <--cm   -  kg/ha-->  151.4   62.4  51964 
SOIL ALBEDO    : 0.09      EVAPORATION LIMIT : 6.00         MIN. FACTOR  : 1.00 
RUNOFF CURVE # :76.00      DRAINAGE RATE     : 0.60         FERT. FACTOR : 1.00 
                                                                                
 Maize      CULTIVAR :CI0004-DK7088             ECOTYPE :IB0001                 
 P1     : 229.00  P2     : 0.3000  P5     : 971.00                              
 G2     : 957.00  G3     :  7.500  PHINT  : 45.000                              


*SIMULATED CROP AND SOIL STATUS AT MAIN DEVELOPMENT STAGES

 RUN NO.    35     P12/14                  

        CROP GROWTH     BIOMASS         LEAF   CROP N     STRESS      STRESS                                           
   DATE  AGE STAGE        kg/ha    LAI   NUM  kg/ha  %   H2O  Nitr Phos1 Phos2  RSTG                                   
 ------  --- ----------   -----  -----  ----  ---  ---  ----  ----  ----  ----  ----                                   
 14 NOV    0 Start Sim        0   0.00   0.0    0  0.0  0.00  0.00  0.00  0.00     7
 14 DEC    0 Sowing           0   0.00   0.0    0  0.0  0.00  0.00  0.00  0.00     8
 15 DEC    1 Germinate        0   0.00   0.0    0  0.0  0.00  0.00  0.00  0.00     9
 20 DEC    6 Emergence       25   0.00   2.1    1  4.4  0.00  0.01  0.00  0.00     1
  2 JAN   19 End Juveni     111   0.24   7.6    4  3.3  0.00  0.00  0.00  0.00     2
  6 JAN   23 Floral Ini     247   0.47   9.2    9  3.7  0.00  0.00  0.00  0.00     3
  8 FEB   56 75% Silkin    3063   1.48  19.4   71  2.3  0.45  0.00  0.00  0.00     4
 17 FEB   65 Beg Gr Fil    3158   1.10  19.4   71  2.3  0.75  0.00  0.00  0.00     5
  1 APR  108 End Gr Fil    4563   0.37  19.4   71  1.6  0.52  0.00  0.00  0.00     6
  4 APR  111 Maturity      4563   0.37  19.4   71  1.6  0.00  0.00  0.00  0.00    10
  4 APR  111 Harvest       4563   0.37  19.4   71  1.6  0.00  0.00  0.00  0.00    10


*MAIN GROWTH AND DEVELOPMENT VARIABLES

@     VARIABLE                                         SIMULATED     MEASURED
      --------                                         ---------     --------
      Anthesis day (dap)                                      56          -99
      Physiological maturity day (dap)                       111          -99
      Yield at harvest maturity (kg [dm]/ha)                1453          -99
      Number at maturity (no/m2)                             630          -99
      Unit wt at maturity (g [dm]/unit)                   0.2307          -99
      Number at maturity (no/unit)                         110.7          -99
      Tops weight at maturity (kg [dm]/ha)                  4563          -99
      By-product produced (stalk) at maturity (kg[dm]/ha    3149          -99
      Leaf area index, maximum                              2.05          -99
      Harvest index at maturity                            0.318          -99
      Grain N at maturity (kg/ha)                             26          -99
      Tops N at maturity (kg/ha)                              71          -99
      Stem N at maturity (kg/ha)                              43          -99
      Grain N at maturity (%)                                1.8          -99
      Tops weight at anthesis (kg [dm]/ha)                  3050          -99
      Tops N at anthesis (kg/ha)                              71          -99
      Leaf number per stem at maturity                     19.38          -99
      Emergence day (dap)                                      6          -99


*ENVIRONMENTAL AND STRESS FACTORS

 |-----Development Phase------|--------------------------------------Environment--------------------------------------|-----------------Stress-----------------|
                              |---------------Average--------------|-----Cumulative-----|--------Count of days--------|          (0=Min, 1=Max Stress)         |
                         Time  Temp  Temp  Temp Solar Photop                Evapo    Pot TMIN TMIN TMAX TMAX TMAX RAIN|----Water----|---Nitrogen--|-Phosphorus-|
                         Span   Max   Min  Mean   Rad  [day]    CO2   Rain  Trans     ET   <    <    >    >    >    >   Photo         Photo         Photo
                         days    邂    邂    邂 MJ/m2     hr    ppm     mm     mm     mm  0邂  2邂 30邂 32邂 34邂  0mm  synth Growth  synth Growth  synth Growth
----------------------------------------------------------------------------------------------------------------------------------------------------------------
 Emergence-End Juvenile    13  29.9  19.2  24.5  14.6   0.00  374.3    0.0   14.3   52.0    0    0    5    3    0    0  0.000  0.000  0.002  0.005  0.000  0.000
 End Juvenil-Floral Init    4  32.0  18.8  25.4  16.9   0.00  374.3    0.0    4.8   18.3    0    0    4    1    0    0  0.000  0.000  0.001  0.002  0.000  0.000
 Floral Init-End Lf Grow   33  31.3  18.6  24.9  16.1   0.00  374.4   13.6   68.3  132.3    0    0   25   13    1    2  0.313  0.428  0.000  0.000  0.000  0.000
 End Lf Grth-Beg Grn Fil    9  32.3  19.6  25.9  10.6   0.00  374.6   13.7   12.2   24.5    0    0    9    4    1    4  0.647  0.745  0.000  0.000  0.000  0.000
 Grain Filling Phase       43  32.0  19.1  25.5  15.8   6.96  374.8   91.0   66.6  183.1    0    0   34   23    4   13  0.514  0.537  0.000  0.000  0.000  0.000


 Planting to Harvest      111  31.5  19.0  25.3  15.2   3.13  374.6  159.8  191.0  443.8    0    0   85   47    7   23  0.345  0.396  0.000  0.001  0.000  0.000
----------------------------------------------------------------------------------------------------------------------------------------------------------------


*Resource Productivity
 Growing season length: 111 days 

 Precipitation during growing season       159.8 mm[rain]
   Dry Matter Productivity                  2.86 kg[DM]/m3[rain]          =   28.6 kg[DM]/ha per mm[rain]
   Yield Productivity                       0.91 kg[grain yield]/m3[rain] =    9.1 kg[yield]/ha per mm[rain]

 Evapotranspiration during growing season  191.0 mm[ET]
   Dry Matter Productivity                  2.39 kg[DM]/m3[ET]            =   23.9 kg[DM]/ha per mm[ET]
   Yield Productivity                       0.76 kg[grain yield]/m3[ET]   =    7.6 kg[yield]/ha per mm[ET]

 Transpiration during growing season        88.2 mm[EP]
   Dry Matter Productivity                  5.17 kg[DM]/m3[EP]            =   51.7 kg[DM]/ha per mm[EP]
   Yield Productivity                       1.65 kg[grain yield]/m3[EP]   =   16.5 kg[yield]/ha per mm[EP]

 N applied during growing season            161. kg[N applied]/ha
   Dry Matter Productivity                  28.3 kg[DM]/kg[N applied]
   Yield Productivity                        9.0 kg[yield]/kg[N applied]

 N uptake during growing season               79 kg[N uptake]/ha
   Dry Matter Productivity                  57.8 kg[DM]/kg[N uptake]
   Yield Productivity                       18.4 kg[yield]/kg[N uptake]

--------------------------------------------------------------------------------------------------------------

                     Maize YIELD :     1453 kg/ha    [Dry weight] 

**************************************************************************************************************

*DSSAT Cropping System Model Ver. 4.6.1.000 -release      OCT 02, 2017; 13:56:37
                                                                                
*RUN  36        : P12/19                    MZCER046 ANBU2002   36              
 MODEL          : MZCER046 - Maize                                              
 EXPERIMENT     : ANBU2002 MZ  Analisis a침os de bajo rendimiento Buga          
 DATA PATH      : C:\DSSAT46\maize\                                             
 TREATMENT 36   : P12/19                    MZCER046                            
                                                                                
                                                                                
 CROP           : Maize            CULTIVAR : DK7088           ECOTYPE :IB0001  
 STARTING DATE  : NOV 19 2002                                                   
 PLANTING DATE  : DEC 19 2002        PLANTS/m2 :  6.2     ROW SPACING :  80.cm  
 WEATHER        : CUNI   2002                                                   
 SOIL           : CCBUGA2017     TEXTURE : CL    -   Suelo Buga MADR Fase I     
 SOIL INITIAL C : DEPTH: 90cm EXTR. H2O: 83.9mm  NO3:151.4kg/ha  NH4: 62.4kg/ha 
 WATER BALANCE  : RAINFED                                                       
 IRRIGATION     : NOT IRRIGATED                                                 
 NITROGEN BAL.  : SOIL-N & N-UPTAKE SIMULATION; NO N-FIXATION                   
 N-FERTILIZER   :      161 kg/ha IN     5 APPLICATIONS                          
 RESIDUE/MANURE : INITIAL :     0 kg/ha ;       0 kg/ha IN     0 APPLICATIONS   
 ENVIRONM. OPT. : DAYL=    0.00  SRAD=    0.00  TMAX=    0.00  TMIN=    0.00    
                  RAIN=    0.00  CO2 =    0.00  DEW =    0.00  WIND=    0.00    
 SIMULATION OPT : WATER   :Y  NITROGEN:Y  N-FIX:N  PHOSPH :N  PESTS  :N         
                  PHOTO   :C  ET      :R  INFIL:S  HYDROL :R  SOM    :G         
                  CO2 374ppm  NSWIT   :1  EVAP :S  SOIL   :2  STEMP  :D         
 MANAGEMENT OPT : PLANTING:R  IRRIG   :N  FERT :D  RESIDUE:R  HARVEST:M         
                  WEATHER :M  TILLAGE :N                                        
                                                                                
*SUMMARY OF SOIL AND GENETIC INPUT PARAMETERS                                   
                                                                                
   SOIL LOWER UPPER   SAT  EXTR  INIT   ROOT   BULK     pH    NO3    NH4    ORG 
  DEPTH LIMIT LIMIT    SW    SW    SW   DIST   DENS                          C  
   cm   cm3/cm3    cm3/cm3    cm3/cm3         g/cm3         ugN/g  ugN/g     %  
------------------------------------------------------------------------------- 
  0-  5 0.215 0.331 0.341 0.116 0.319   1.00   1.68   6.70  11.90   4.21   0.75 
  5- 15 0.215 0.331 0.341 0.116 0.319   1.00   1.68   6.70  11.90   4.21   0.75 
 15- 25 0.215 0.331 0.341 0.116 0.319   1.00   1.68   6.70  11.90   4.21   0.75 
 25- 35 0.181 0.291 0.364 0.110 0.331   0.50   1.61   7.20  12.15   4.32   0.53 
 35- 45 0.181 0.291 0.364 0.110 0.344   0.50   1.61   7.20  12.40   4.44   0.53 
 45- 67 0.096 0.169 0.404 0.073 0.290   0.27   1.51   7.00  10.67   4.47   0.05 
 67- 90 0.096 0.169 0.404 0.073 0.195   0.27   1.51   7.00   7.63   4.53   0.05 
                                                                                
TOT- 90  13.3  21.7  34.0   8.4  25.6  <--cm   -  kg/ha-->  151.4   62.4  51964 
SOIL ALBEDO    : 0.09      EVAPORATION LIMIT : 6.00         MIN. FACTOR  : 1.00 
RUNOFF CURVE # :76.00      DRAINAGE RATE     : 0.60         FERT. FACTOR : 1.00 
                                                                                
 Maize      CULTIVAR :CI0004-DK7088             ECOTYPE :IB0001                 
 P1     : 229.00  P2     : 0.3000  P5     : 971.00                              
 G2     : 957.00  G3     :  7.500  PHINT  : 45.000                              


*SIMULATED CROP AND SOIL STATUS AT MAIN DEVELOPMENT STAGES

 RUN NO.    36     P12/19                  

        CROP GROWTH     BIOMASS         LEAF   CROP N     STRESS      STRESS                                           
   DATE  AGE STAGE        kg/ha    LAI   NUM  kg/ha  %   H2O  Nitr Phos1 Phos2  RSTG                                   
 ------  --- ----------   -----  -----  ----  ---  ---  ----  ----  ----  ----  ----                                   
 19 NOV    0 Start Sim        0   0.00   0.0    0  0.0  0.00  0.00  0.00  0.00     7
 19 DEC    0 Sowing           0   0.00   0.0    0  0.0  0.00  0.00  0.00  0.00     8
 20 DEC    1 Germinate        0   0.00   0.0    0  0.0  0.00  0.00  0.00  0.00     9
 25 DEC    6 Emergence       25   0.00   2.0    1  4.4  0.00  0.01  0.00  0.00     1
  7 JAN   19 End Juveni     122   0.26   7.8    4  3.4  0.00  0.00  0.00  0.00     2
 11 JAN   23 Floral Ini     273   0.51   9.4   10  3.7  0.00  0.00  0.00  0.00     3
 13 FEB   56 75% Silkin    3000   1.49  19.6   70  2.3  0.46  0.00  0.00  0.00     4
 22 FEB   65 Beg Gr Fil    3088   1.10  19.6   70  2.3  0.77  0.00  0.00  0.00     5
  6 APR  108 End Gr Fil    4791   0.45  19.6   70  1.5  0.42  0.00  0.00  0.00     6
  9 APR  111 Maturity      4791   0.45  19.6   70  1.5  0.00  0.00  0.00  0.00    10
  9 APR  111 Harvest       4791   0.45  19.6   70  1.5  0.00  0.00  0.00  0.00    10


*MAIN GROWTH AND DEVELOPMENT VARIABLES

@     VARIABLE                                         SIMULATED     MEASURED
      --------                                         ---------     --------
      Anthesis day (dap)                                      56          -99
      Physiological maturity day (dap)                       111          -99
      Yield at harvest maturity (kg [dm]/ha)                1585          -99
      Number at maturity (no/m2)                             642          -99
      Unit wt at maturity (g [dm]/unit)                   0.2470          -99
      Number at maturity (no/unit)                         112.3          -99
      Tops weight at maturity (kg [dm]/ha)                  4791          -99
      By-product produced (stalk) at maturity (kg[dm]/ha    3246          -99
      Leaf area index, maximum                              2.08          -99
      Harvest index at maturity                            0.331          -99
      Grain N at maturity (kg/ha)                             28          -99
      Tops N at maturity (kg/ha)                              70          -99
      Stem N at maturity (kg/ha)                              39          -99
      Grain N at maturity (%)                                1.8          -99
      Tops weight at anthesis (kg [dm]/ha)                  2991          -99
      Tops N at anthesis (kg/ha)                              70          -99
      Leaf number per stem at maturity                     19.63          -99
      Emergence day (dap)                                      6          -99


*ENVIRONMENTAL AND STRESS FACTORS

 |-----Development Phase------|--------------------------------------Environment--------------------------------------|-----------------Stress-----------------|
                              |---------------Average--------------|-----Cumulative-----|--------Count of days--------|          (0=Min, 1=Max Stress)         |
                         Time  Temp  Temp  Temp Solar Photop                Evapo    Pot TMIN TMIN TMAX TMAX TMAX RAIN|----Water----|---Nitrogen--|-Phosphorus-|
                         Span   Max   Min  Mean   Rad  [day]    CO2   Rain  Trans     ET   <    <    >    >    >    >   Photo         Photo         Photo
                         days    邂    邂    邂 MJ/m2     hr    ppm     mm     mm     mm  0邂  2邂 30邂 32邂 34邂  0mm  synth Growth  synth Growth  synth Growth
----------------------------------------------------------------------------------------------------------------------------------------------------------------
 Emergence-End Juvenile    13  30.9  19.0  25.0  15.9   0.00  374.3    0.0   10.1   56.8    0    0    9    4    0    0  0.000  0.000  0.002  0.006  0.000  0.000
 End Juvenil-Floral Init    4  31.4  17.8  24.6  17.5   0.00  374.3    0.0    4.7   18.6    0    0    3    1    0    0  0.000  0.000  0.001  0.002  0.000  0.000
 Floral Init-End Lf Grow   33  31.5  18.9  25.2  15.1   0.00  374.5   18.1   68.6  124.7    0    0   26   15    2    4  0.317  0.438  0.000  0.000  0.000  0.000
 End Lf Grth-Beg Grn Fil    9  32.5  19.6  26.0  10.4   0.00  374.7   10.2   13.0   24.1    0    0    9    4    1    3  0.652  0.762  0.000  0.000  0.000  0.000
 Grain Filling Phase       43  32.0  19.1  25.5  16.7   8.85  374.8   90.0   73.8  192.7    0    0   34   25    4   12  0.423  0.437  0.000  0.000  0.000  0.000


 Planting to Harvest      111  31.6  19.0  25.3  15.5   3.91  374.6  123.0  187.8  453.9    0    0   85   51    7   20  0.311  0.361  0.000  0.001  0.000  0.000
----------------------------------------------------------------------------------------------------------------------------------------------------------------


*Resource Productivity
 Growing season length: 111 days 

 Precipitation during growing season       123.0 mm[rain]
   Dry Matter Productivity                  3.90 kg[DM]/m3[rain]          =   39.0 kg[DM]/ha per mm[rain]
   Yield Productivity                       1.29 kg[grain yield]/m3[rain] =   12.9 kg[yield]/ha per mm[rain]

 Evapotranspiration during growing season  187.8 mm[ET]
   Dry Matter Productivity                  2.55 kg[DM]/m3[ET]            =   25.5 kg[DM]/ha per mm[ET]
   Yield Productivity                       0.84 kg[grain yield]/m3[ET]   =    8.4 kg[yield]/ha per mm[ET]

 Transpiration during growing season        97.0 mm[EP]
   Dry Matter Productivity                  4.94 kg[DM]/m3[EP]            =   49.4 kg[DM]/ha per mm[EP]
   Yield Productivity                       1.63 kg[grain yield]/m3[EP]   =   16.3 kg[yield]/ha per mm[EP]

 N applied during growing season            161. kg[N applied]/ha
   Dry Matter Productivity                  29.8 kg[DM]/kg[N applied]
   Yield Productivity                        9.8 kg[yield]/kg[N applied]

 N uptake during growing season               77 kg[N uptake]/ha
   Dry Matter Productivity                  62.2 kg[DM]/kg[N uptake]
   Yield Productivity                       20.6 kg[yield]/kg[N uptake]

--------------------------------------------------------------------------------------------------------------

                     Maize YIELD :     1585 kg/ha    [Dry weight] 

**************************************************************************************************************
