*SIMULATION OVERVIEW FILE

*DSSAT Cropping System Model Ver. 4.6.1.000 -release      OCT 02, 2017; 13:01:01
                                                                                
*RUN   1        : P07/14                    MZCER046 ANES1986    1              
 MODEL          : MZCER046 - Maize                                              
 EXPERIMENT     : ANES1986 MZ  Analisis a침os de bajo rendimiento Espinal       
 DATA PATH      : C:\DSSAT46\maize\                                             
 TREATMENT  1   : P07/14                    MZCER046                            
                                                                                
                                                                                
 CROP           : Maize            CULTIVAR : FNC3056          ECOTYPE :IB0001  
 STARTING DATE  : JUN 14 1986                                                   
 PLANTING DATE  : JUL 14 1986        PLANTS/m2 :  6.2     ROW SPACING :  80.cm  
 WEATHER        : CNAT   1986                                                   
 SOIL           : CCESPI2017     TEXTURE : SL    -   Suelo Espinal Calibraci    
 SOIL INITIAL C : DEPTH:100cm EXTR. H2O: 83.6mm  NO3:100.0kg/ha  NH4: 72.3kg/ha 
 WATER BALANCE  : RAINFED                                                       
 IRRIGATION     : NOT IRRIGATED                                                 
 NITROGEN BAL.  : SOIL-N & N-UPTAKE SIMULATION; NO N-FIXATION                   
 N-FERTILIZER   :      162 kg/ha IN     6 APPLICATIONS                          
 RESIDUE/MANURE : INITIAL :     0 kg/ha ;       0 kg/ha IN     0 APPLICATIONS   
 ENVIRONM. OPT. : DAYL=    0.00  SRAD=    0.00  TMAX=    0.00  TMIN=    0.00    
                  RAIN=    0.00  CO2 =    0.00  DEW =    0.00  WIND=    0.00    
 SIMULATION OPT : WATER   :Y  NITROGEN:Y  N-FIX:N  PHOSPH :N  PESTS  :N         
                  PHOTO   :C  ET      :R  INFIL:S  HYDROL :R  SOM    :G         
                  CO2 347ppm  NSWIT   :1  EVAP :S  SOIL   :2  STEMP  :D         
 MANAGEMENT OPT : PLANTING:R  IRRIG   :N  FERT :D  RESIDUE:R  HARVEST:M         
                  WEATHER :M  TILLAGE :N                                        
                                                                                
*SUMMARY OF SOIL AND GENETIC INPUT PARAMETERS                                   
                                                                                
   SOIL LOWER UPPER   SAT  EXTR  INIT   ROOT   BULK     pH    NO3    NH4    ORG 
  DEPTH LIMIT LIMIT    SW    SW    SW   DIST   DENS                          C  
   cm   cm3/cm3    cm3/cm3    cm3/cm3         g/cm3         ugN/g  ugN/g     %  
------------------------------------------------------------------------------- 
  0-  5 0.160 0.252 0.376 0.092 0.252   1.00   1.69   6.60   8.90   4.51   0.45 
  5- 15 0.160 0.252 0.376 0.092 0.252   1.00   1.69   6.60   8.90   4.51   0.45 
 15- 30 0.160 0.252 0.376 0.092 0.252   1.00   1.69   6.60   8.90   4.51   0.45 
 30- 53 0.120 0.200 0.440 0.080 0.200   0.27   1.40   7.10   5.60   5.04   0.17 
 53- 77 0.120 0.200 0.440 0.080 0.200   0.27   1.40   7.10   5.60   5.04   0.17 
 77-100 0.120 0.200 0.440 0.080 0.200   0.27   1.40   7.10   5.60   5.04   0.17 
                                                                                
TOT-100  13.2  21.6  42.1   8.4  21.6  <--cm   -  kg/ha-->  100.0   72.3  39475 
SOIL ALBEDO    : 0.09      EVAPORATION LIMIT : 6.00         MIN. FACTOR  : 1.00 
RUNOFF CURVE # :76.00      DRAINAGE RATE     : 0.60         FERT. FACTOR : 1.00 
                                                                                
 Maize      CULTIVAR :CI0003-FNC3056            ECOTYPE :IB0001                 
 P1     : 233.00  P2     : 0.5000  P5     : 976.00                              
 G2     : 956.00  G3     :  7.500  PHINT  : 45.600                              


*SIMULATED CROP AND SOIL STATUS AT MAIN DEVELOPMENT STAGES

 RUN NO.     1     P07/14                  

        CROP GROWTH     BIOMASS         LEAF   CROP N     STRESS      STRESS                                           
   DATE  AGE STAGE        kg/ha    LAI   NUM  kg/ha  %   H2O  Nitr Phos1 Phos2  RSTG                                   
 ------  --- ----------   -----  -----  ----  ---  ---  ----  ----  ----  ----  ----                                   
 14 JUN    0 Start Sim        0   0.00   0.0    0  0.0  0.00  0.00  0.00  0.00     7
 14 JUL    0 Sowing           0   0.00   0.0    0  0.0  0.00  0.00  0.00  0.00     8
 15 JUL    1 Germinate        0   0.00   0.0    0  0.0  0.00  0.00  0.00  0.00     9
 19 JUL    5 Emergence       25   0.00   2.2    1  4.4  0.00  0.01  0.00  0.00     1
 31 JUL   17 End Juveni     154   0.32   8.1    5  3.2  0.05  0.00  0.00  0.00     2
  8 AUG   25 Floral Ini     518   0.83  11.9   20  3.8  0.33  0.00  0.00  0.00     3
 11 SEP   59 75% Silkin    3989   1.62  24.2   96  2.4  0.55  0.00  0.00  0.00     4
 19 SEP   67 Beg Gr Fil    3883   1.12  24.2   96  2.5  0.94  0.00  0.00  0.00     5
 30 OCT  108 End Gr Fil    5382   0.98  24.2   96  1.8  0.07  0.00  0.00  0.00     6
  2 NOV  111 Maturity      5382   0.98  24.2   96  1.8  0.00  0.00  0.00  0.00    10
  2 NOV  111 Harvest       5382   0.98  24.2   96  1.8  0.00  0.00  0.00  0.00    10


*MAIN GROWTH AND DEVELOPMENT VARIABLES

@     VARIABLE                                         SIMULATED     MEASURED
      --------                                         ---------     --------
      Anthesis day (dap)                                      59          -99
      Physiological maturity day (dap)                       111          -99
      Yield at harvest maturity (kg [dm]/ha)                1276          -99
      Number at maturity (no/m2)                             455          -99
      Unit wt at maturity (g [dm]/unit)                   0.2804          -99
      Number at maturity (no/unit)                          86.7          -99
      Tops weight at maturity (kg [dm]/ha)                  5382          -99
      By-product produced (stalk) at maturity (kg[dm]/ha    4157          -99
      Leaf area index, maximum                              2.30          -99
      Harvest index at maturity                            0.237          -99
      Grain N at maturity (kg/ha)                             22          -99
      Tops N at maturity (kg/ha)                              96          -99
      Stem N at maturity (kg/ha)                              70          -99
      Grain N at maturity (%)                                1.7          -99
      Tops weight at anthesis (kg [dm]/ha)                  3984          -99
      Tops N at anthesis (kg/ha)                              96          -99
      Leaf number per stem at maturity                     24.24          -99
      Emergence day (dap)                                      5          -99


*ENVIRONMENTAL AND STRESS FACTORS

 |-----Development Phase------|--------------------------------------Environment--------------------------------------|-----------------Stress-----------------|
                              |---------------Average--------------|-----Cumulative-----|--------Count of days--------|          (0=Min, 1=Max Stress)         |
                         Time  Temp  Temp  Temp Solar Photop                Evapo    Pot TMIN TMIN TMAX TMAX TMAX RAIN|----Water----|---Nitrogen--|-Phosphorus-|
                         Span   Max   Min  Mean   Rad  [day]    CO2   Rain  Trans     ET   <    <    >    >    >    >   Photo         Photo         Photo
                         days    邂    邂    邂 MJ/m2     hr    ppm     mm     mm     mm  0邂  2邂 30邂 32邂 34邂  0mm  synth Growth  synth Growth  synth Growth
----------------------------------------------------------------------------------------------------------------------------------------------------------------
 Emergence-End Juvenile    12  34.2  20.7  27.4  19.3  24.00  347.2    0.0    6.0   67.4    0    0   11   11    7    0  0.020  0.054  0.002  0.006  0.000  0.000
 End Juvenil-Floral Init    8  35.3  22.4  28.8  20.3  24.00  347.2    0.0   13.5   46.5    0    0    8    8    8    0  0.039  0.261  0.001  0.002  0.000  0.000
 Floral Init-End Lf Grow   34  34.7  22.3  28.5  20.2  21.97  347.3   48.3   91.0  187.9    0    0   34   28   20    9  0.410  0.545  0.000  0.000  0.000  0.000
 End Lf Grth-Beg Grn Fil    8  36.6  24.0  30.3  20.2  14.16  347.4    0.4    5.4   48.7    0    0    8    8    7    1  0.890  0.927  0.000  0.000  0.000  0.000
 Grain Filling Phase       41  30.8  21.5  26.2  17.9   4.92  347.5  323.9  172.7  193.6    0    0   24    9    5   31  0.088  0.091  0.000  0.000  0.000  0.000


 Planting to Harvest      111  33.3  21.9  27.6  19.0  14.97  347.4  374.4  299.6  580.7    0    0   92   70   49   43  0.227  0.292  0.000  0.001  0.000  0.000
----------------------------------------------------------------------------------------------------------------------------------------------------------------


*Resource Productivity
 Growing season length: 111 days 

 Precipitation during growing season       374.4 mm[rain]
   Dry Matter Productivity                  1.44 kg[DM]/m3[rain]          =   14.4 kg[DM]/ha per mm[rain]
   Yield Productivity                       0.34 kg[grain yield]/m3[rain] =    3.4 kg[yield]/ha per mm[rain]

 Evapotranspiration during growing season  299.6 mm[ET]
   Dry Matter Productivity                  1.80 kg[DM]/m3[ET]            =   18.0 kg[DM]/ha per mm[ET]
   Yield Productivity                       0.43 kg[grain yield]/m3[ET]   =    4.3 kg[yield]/ha per mm[ET]

 Transpiration during growing season       179.4 mm[EP]
   Dry Matter Productivity                  3.00 kg[DM]/m3[EP]            =   30.0 kg[DM]/ha per mm[EP]
   Yield Productivity                       0.71 kg[grain yield]/m3[EP]   =    7.1 kg[yield]/ha per mm[EP]

 N applied during growing season            162. kg[N applied]/ha
   Dry Matter Productivity                  33.2 kg[DM]/kg[N applied]
   Yield Productivity                        7.9 kg[yield]/kg[N applied]

 N uptake during growing season              107 kg[N uptake]/ha
   Dry Matter Productivity                  50.3 kg[DM]/kg[N uptake]
   Yield Productivity                       11.9 kg[yield]/kg[N uptake]

--------------------------------------------------------------------------------------------------------------

                     Maize YIELD :     1276 kg/ha    [Dry weight] 

**************************************************************************************************************

*DSSAT Cropping System Model Ver. 4.6.1.000 -release      OCT 02, 2017; 13:01:01
                                                                                
*RUN   2        : P07/19                    MZCER046 ANES1986    2              
 MODEL          : MZCER046 - Maize                                              
 EXPERIMENT     : ANES1986 MZ  Analisis a침os de bajo rendimiento Espinal       
 DATA PATH      : C:\DSSAT46\maize\                                             
 TREATMENT  2   : P07/19                    MZCER046                            
                                                                                
                                                                                
 CROP           : Maize            CULTIVAR : FNC3056          ECOTYPE :IB0001  
 STARTING DATE  : JUN 19 1986                                                   
 PLANTING DATE  : JUL 19 1986        PLANTS/m2 :  6.2     ROW SPACING :  80.cm  
 WEATHER        : CNAT   1986                                                   
 SOIL           : CCESPI2017     TEXTURE : SL    -   Suelo Espinal Calibraci    
 SOIL INITIAL C : DEPTH:100cm EXTR. H2O: 83.6mm  NO3:100.0kg/ha  NH4: 72.3kg/ha 
 WATER BALANCE  : RAINFED                                                       
 IRRIGATION     : NOT IRRIGATED                                                 
 NITROGEN BAL.  : SOIL-N & N-UPTAKE SIMULATION; NO N-FIXATION                   
 N-FERTILIZER   :      162 kg/ha IN     6 APPLICATIONS                          
 RESIDUE/MANURE : INITIAL :     0 kg/ha ;       0 kg/ha IN     0 APPLICATIONS   
 ENVIRONM. OPT. : DAYL=    0.00  SRAD=    0.00  TMAX=    0.00  TMIN=    0.00    
                  RAIN=    0.00  CO2 =    0.00  DEW =    0.00  WIND=    0.00    
 SIMULATION OPT : WATER   :Y  NITROGEN:Y  N-FIX:N  PHOSPH :N  PESTS  :N         
                  PHOTO   :C  ET      :R  INFIL:S  HYDROL :R  SOM    :G         
                  CO2 347ppm  NSWIT   :1  EVAP :S  SOIL   :2  STEMP  :D         
 MANAGEMENT OPT : PLANTING:R  IRRIG   :N  FERT :D  RESIDUE:R  HARVEST:M         
                  WEATHER :M  TILLAGE :N                                        
                                                                                
*SUMMARY OF SOIL AND GENETIC INPUT PARAMETERS                                   
                                                                                
   SOIL LOWER UPPER   SAT  EXTR  INIT   ROOT   BULK     pH    NO3    NH4    ORG 
  DEPTH LIMIT LIMIT    SW    SW    SW   DIST   DENS                          C  
   cm   cm3/cm3    cm3/cm3    cm3/cm3         g/cm3         ugN/g  ugN/g     %  
------------------------------------------------------------------------------- 
  0-  5 0.160 0.252 0.376 0.092 0.252   1.00   1.69   6.60   8.90   4.51   0.45 
  5- 15 0.160 0.252 0.376 0.092 0.252   1.00   1.69   6.60   8.90   4.51   0.45 
 15- 30 0.160 0.252 0.376 0.092 0.252   1.00   1.69   6.60   8.90   4.51   0.45 
 30- 53 0.120 0.200 0.440 0.080 0.200   0.27   1.40   7.10   5.60   5.04   0.17 
 53- 77 0.120 0.200 0.440 0.080 0.200   0.27   1.40   7.10   5.60   5.04   0.17 
 77-100 0.120 0.200 0.440 0.080 0.200   0.27   1.40   7.10   5.60   5.04   0.17 
                                                                                
TOT-100  13.2  21.6  42.1   8.4  21.6  <--cm   -  kg/ha-->  100.0   72.3  39475 
SOIL ALBEDO    : 0.09      EVAPORATION LIMIT : 6.00         MIN. FACTOR  : 1.00 
RUNOFF CURVE # :76.00      DRAINAGE RATE     : 0.60         FERT. FACTOR : 1.00 
                                                                                
 Maize      CULTIVAR :CI0003-FNC3056            ECOTYPE :IB0001                 
 P1     : 233.00  P2     : 0.5000  P5     : 976.00                              
 G2     : 956.00  G3     :  7.500  PHINT  : 45.600                              


*SIMULATED CROP AND SOIL STATUS AT MAIN DEVELOPMENT STAGES

 RUN NO.     2     P07/19                  

        CROP GROWTH     BIOMASS         LEAF   CROP N     STRESS      STRESS                                           
   DATE  AGE STAGE        kg/ha    LAI   NUM  kg/ha  %   H2O  Nitr Phos1 Phos2  RSTG                                   
 ------  --- ----------   -----  -----  ----  ---  ---  ----  ----  ----  ----  ----                                   
 19 JUN    0 Start Sim        0   0.00   0.0    0  0.0  0.00  0.00  0.00  0.00     7
 19 JUL    0 Sowing           0   0.00   0.0    0  0.0  0.00  0.00  0.00  0.00     8
 20 JUL    1 Germinate        0   0.00   0.0    0  0.0  0.00  0.00  0.00  0.00     9
 24 JUL    5 Emergence       25   0.00   2.2    1  4.4  0.00  0.01  0.00  0.00     1
  4 AUG   16 End Juveni     144   0.30   7.9    5  3.2  0.01  0.00  0.00  0.00     2
 12 AUG   24 Floral Ini     524   0.86  11.7   19  3.6  0.25  0.00  0.00  0.00     3
 14 SEP   57 75% Silkin    3936   1.68  24.1   97  2.5  0.53  0.00  0.00  0.00     4
 22 SEP   65 Beg Gr Fil    3840   1.16  24.1   97  2.5  0.94  0.00  0.00  0.00     5
  3 NOV  107 End Gr Fil    5464   1.16  24.1   97  1.8  0.00  0.00  0.00  0.00     6
  6 NOV  110 Maturity      5464   1.16  24.1   97  1.8  0.00  0.00  0.00  0.00    10
  6 NOV  110 Harvest       5464   1.16  24.1   97  1.8  0.00  0.00  0.00  0.00    10


*MAIN GROWTH AND DEVELOPMENT VARIABLES

@     VARIABLE                                         SIMULATED     MEASURED
      --------                                         ---------     --------
      Anthesis day (dap)                                      57          -99
      Physiological maturity day (dap)                       110          -99
      Yield at harvest maturity (kg [dm]/ha)                1390          -99
      Number at maturity (no/m2)                             458          -99
      Unit wt at maturity (g [dm]/unit)                   0.3033          -99
      Number at maturity (no/unit)                          87.1          -99
      Tops weight at maturity (kg [dm]/ha)                  5464          -99
      By-product produced (stalk) at maturity (kg[dm]/ha    4127          -99
      Leaf area index, maximum                              2.47          -99
      Harvest index at maturity                            0.254          -99
      Grain N at maturity (kg/ha)                             24          -99
      Tops N at maturity (kg/ha)                              97          -99
      Stem N at maturity (kg/ha)                              69          -99
      Grain N at maturity (%)                                1.7          -99
      Tops weight at anthesis (kg [dm]/ha)                  3935          -99
      Tops N at anthesis (kg/ha)                              97          -99
      Leaf number per stem at maturity                     24.10          -99
      Emergence day (dap)                                      5          -99


*ENVIRONMENTAL AND STRESS FACTORS

 |-----Development Phase------|--------------------------------------Environment--------------------------------------|-----------------Stress-----------------|
                              |---------------Average--------------|-----Cumulative-----|--------Count of days--------|          (0=Min, 1=Max Stress)         |
                         Time  Temp  Temp  Temp Solar Photop                Evapo    Pot TMIN TMIN TMAX TMAX TMAX RAIN|----Water----|---Nitrogen--|-Phosphorus-|
                         Span   Max   Min  Mean   Rad  [day]    CO2   Rain  Trans     ET   <    <    >    >    >    >   Photo         Photo         Photo
                         days    邂    邂    邂 MJ/m2     hr    ppm     mm     mm     mm  0邂  2邂 30邂 32邂 34邂  0mm  synth Growth  synth Growth  synth Growth
----------------------------------------------------------------------------------------------------------------------------------------------------------------
 Emergence-End Juvenile    11  34.8  21.1  28.0  19.8  24.00  347.2    0.0    5.1   63.7    0    0   11   11    9    0  0.000  0.015  0.002  0.006  0.000  0.000
 End Juvenil-Floral Init    8  36.1  22.2  29.1  20.8  24.00  347.2    0.0   12.4   49.7    0    0    8    8    8    0  0.114  0.247  0.000  0.000  0.000  0.000
 Floral Init-End Lf Grow   33  34.5  22.5  28.5  19.5  21.10  347.3   48.3   95.2  174.8    0    0   33   27   18    9  0.386  0.507  0.000  0.000  0.000  0.000
 End Lf Grth-Beg Grn Fil    8  36.9  24.6  30.7  21.4  13.11  347.4    4.3    5.4   51.5    0    0    8    8    8    3  0.904  0.937  0.000  0.000  0.000  0.000
 Grain Filling Phase       42  30.5  21.2  25.9  17.9   3.93  347.5  321.8  183.9  194.7    0    0   24    7    2   31  0.022  0.022  0.000  0.000  0.000  0.000


 Planting to Harvest      110  33.1  21.9  27.5  19.0  14.02  347.4  395.3  314.1  574.2    0    0   89   65   47   45  0.198  0.248  0.000  0.001  0.000  0.000
----------------------------------------------------------------------------------------------------------------------------------------------------------------


*Resource Productivity
 Growing season length: 110 days 

 Precipitation during growing season       395.3 mm[rain]
   Dry Matter Productivity                  1.38 kg[DM]/m3[rain]          =   13.8 kg[DM]/ha per mm[rain]
   Yield Productivity                       0.35 kg[grain yield]/m3[rain] =    3.5 kg[yield]/ha per mm[rain]

 Evapotranspiration during growing season  314.1 mm[ET]
   Dry Matter Productivity                  1.74 kg[DM]/m3[ET]            =   17.4 kg[DM]/ha per mm[ET]
   Yield Productivity                       0.44 kg[grain yield]/m3[ET]   =    4.4 kg[yield]/ha per mm[ET]

 Transpiration during growing season       199.7 mm[EP]
   Dry Matter Productivity                  2.74 kg[DM]/m3[EP]            =   27.4 kg[DM]/ha per mm[EP]
   Yield Productivity                       0.70 kg[grain yield]/m3[EP]   =    7.0 kg[yield]/ha per mm[EP]

 N applied during growing season            162. kg[N applied]/ha
   Dry Matter Productivity                  33.7 kg[DM]/kg[N applied]
   Yield Productivity                        8.6 kg[yield]/kg[N applied]

 N uptake during growing season              109 kg[N uptake]/ha
   Dry Matter Productivity                  50.1 kg[DM]/kg[N uptake]
   Yield Productivity                       12.8 kg[yield]/kg[N uptake]

--------------------------------------------------------------------------------------------------------------

                     Maize YIELD :     1390 kg/ha    [Dry weight] 

**************************************************************************************************************

*DSSAT Cropping System Model Ver. 4.6.1.000 -release      OCT 02, 2017; 13:01:01
                                                                                
*RUN   3        : P07/24                    MZCER046 ANES1986    3              
 MODEL          : MZCER046 - Maize                                              
 EXPERIMENT     : ANES1986 MZ  Analisis a침os de bajo rendimiento Espinal       
 DATA PATH      : C:\DSSAT46\maize\                                             
 TREATMENT  3   : P07/24                    MZCER046                            
                                                                                
                                                                                
 CROP           : Maize            CULTIVAR : FNC3056          ECOTYPE :IB0001  
 STARTING DATE  : JUN 24 1986                                                   
 PLANTING DATE  : JUL 24 1986        PLANTS/m2 :  6.2     ROW SPACING :  80.cm  
 WEATHER        : CNAT   1986                                                   
 SOIL           : CCESPI2017     TEXTURE : SL    -   Suelo Espinal Calibraci    
 SOIL INITIAL C : DEPTH:100cm EXTR. H2O: 83.6mm  NO3:100.0kg/ha  NH4: 72.3kg/ha 
 WATER BALANCE  : RAINFED                                                       
 IRRIGATION     : NOT IRRIGATED                                                 
 NITROGEN BAL.  : SOIL-N & N-UPTAKE SIMULATION; NO N-FIXATION                   
 N-FERTILIZER   :      162 kg/ha IN     6 APPLICATIONS                          
 RESIDUE/MANURE : INITIAL :     0 kg/ha ;       0 kg/ha IN     0 APPLICATIONS   
 ENVIRONM. OPT. : DAYL=    0.00  SRAD=    0.00  TMAX=    0.00  TMIN=    0.00    
                  RAIN=    0.00  CO2 =    0.00  DEW =    0.00  WIND=    0.00    
 SIMULATION OPT : WATER   :Y  NITROGEN:Y  N-FIX:N  PHOSPH :N  PESTS  :N         
                  PHOTO   :C  ET      :R  INFIL:S  HYDROL :R  SOM    :G         
                  CO2 347ppm  NSWIT   :1  EVAP :S  SOIL   :2  STEMP  :D         
 MANAGEMENT OPT : PLANTING:R  IRRIG   :N  FERT :D  RESIDUE:R  HARVEST:M         
                  WEATHER :M  TILLAGE :N                                        
                                                                                
*SUMMARY OF SOIL AND GENETIC INPUT PARAMETERS                                   
                                                                                
   SOIL LOWER UPPER   SAT  EXTR  INIT   ROOT   BULK     pH    NO3    NH4    ORG 
  DEPTH LIMIT LIMIT    SW    SW    SW   DIST   DENS                          C  
   cm   cm3/cm3    cm3/cm3    cm3/cm3         g/cm3         ugN/g  ugN/g     %  
------------------------------------------------------------------------------- 
  0-  5 0.160 0.252 0.376 0.092 0.252   1.00   1.69   6.60   8.90   4.51   0.45 
  5- 15 0.160 0.252 0.376 0.092 0.252   1.00   1.69   6.60   8.90   4.51   0.45 
 15- 30 0.160 0.252 0.376 0.092 0.252   1.00   1.69   6.60   8.90   4.51   0.45 
 30- 53 0.120 0.200 0.440 0.080 0.200   0.27   1.40   7.10   5.60   5.04   0.17 
 53- 77 0.120 0.200 0.440 0.080 0.200   0.27   1.40   7.10   5.60   5.04   0.17 
 77-100 0.120 0.200 0.440 0.080 0.200   0.27   1.40   7.10   5.60   5.04   0.17 
                                                                                
TOT-100  13.2  21.6  42.1   8.4  21.6  <--cm   -  kg/ha-->  100.0   72.3  39475 
SOIL ALBEDO    : 0.09      EVAPORATION LIMIT : 6.00         MIN. FACTOR  : 1.00 
RUNOFF CURVE # :76.00      DRAINAGE RATE     : 0.60         FERT. FACTOR : 1.00 
                                                                                
 Maize      CULTIVAR :CI0003-FNC3056            ECOTYPE :IB0001                 
 P1     : 233.00  P2     : 0.5000  P5     : 976.00                              
 G2     : 956.00  G3     :  7.500  PHINT  : 45.600                              


*SIMULATED CROP AND SOIL STATUS AT MAIN DEVELOPMENT STAGES

 RUN NO.     3     P07/24                  

        CROP GROWTH     BIOMASS         LEAF   CROP N     STRESS      STRESS                                           
   DATE  AGE STAGE        kg/ha    LAI   NUM  kg/ha  %   H2O  Nitr Phos1 Phos2  RSTG                                   
 ------  --- ----------   -----  -----  ----  ---  ---  ----  ----  ----  ----  ----                                   
 24 JUN    0 Start Sim        0   0.00   0.0    0  0.0  0.00  0.00  0.00  0.00     7
 24 JUL    0 Sowing           0   0.00   0.0    0  0.0  0.00  0.00  0.00  0.00     8
 25 JUL    1 Germinate        0   0.00   0.0    0  0.0  0.00  0.00  0.00  0.00     9
 29 JUL    5 Emergence       25   0.00   2.2    1  4.4  0.00  0.01  0.00  0.00     1
  9 AUG   16 End Juveni     142   0.29   8.0    5  3.2  0.06  0.00  0.00  0.00     2
 17 AUG   24 Floral Ini     474   0.79  11.6   18  3.7  0.20  0.00  0.00  0.00     3
 18 SEP   56 75% Silkin    3476   1.51  23.7   87  2.5  0.55  0.00  0.00  0.00     4
 27 SEP   65 Beg Gr Fil    4189   1.26  23.7   87  2.1  0.41  0.00  0.00  0.00     5
  9 NOV  108 End Gr Fil    8318   1.17  23.7  106  1.3  0.00  0.00  0.00  0.00     6
 11 NOV  110 Maturity      8318   1.17  23.7  106  1.3  0.00  0.00  0.00  0.00    10
 11 NOV  110 Harvest       8318   1.17  23.7  106  1.3  0.00  0.00  0.00  0.00    10


*MAIN GROWTH AND DEVELOPMENT VARIABLES

@     VARIABLE                                         SIMULATED     MEASURED
      --------                                         ---------     --------
      Anthesis day (dap)                                      56          -99
      Physiological maturity day (dap)                       110          -99
      Yield at harvest maturity (kg [dm]/ha)                4228          -99
      Number at maturity (no/m2)                            1330          -99
      Unit wt at maturity (g [dm]/unit)                   0.3180          -99
      Number at maturity (no/unit)                         214.4          -99
      Tops weight at maturity (kg [dm]/ha)                  8318          -99
      By-product produced (stalk) at maturity (kg[dm]/ha    4140          -99
      Leaf area index, maximum                              2.39          -99
      Harvest index at maturity                            0.508          -99
      Grain N at maturity (kg/ha)                             73          -99
      Tops N at maturity (kg/ha)                             106          -99
      Stem N at maturity (kg/ha)                              33          -99
      Grain N at maturity (%)                                1.7          -99
      Tops weight at anthesis (kg [dm]/ha)                  3475          -99
      Tops N at anthesis (kg/ha)                              87          -99
      Leaf number per stem at maturity                     23.69          -99
      Emergence day (dap)                                      5          -99


*ENVIRONMENTAL AND STRESS FACTORS

 |-----Development Phase------|--------------------------------------Environment--------------------------------------|-----------------Stress-----------------|
                              |---------------Average--------------|-----Cumulative-----|--------Count of days--------|          (0=Min, 1=Max Stress)         |
                         Time  Temp  Temp  Temp Solar Photop                Evapo    Pot TMIN TMIN TMAX TMAX TMAX RAIN|----Water----|---Nitrogen--|-Phosphorus-|
                         Span   Max   Min  Mean   Rad  [day]    CO2   Rain  Trans     ET   <    <    >    >    >    >   Photo         Photo         Photo
                         days    邂    邂    邂 MJ/m2     hr    ppm     mm     mm     mm  0邂  2邂 30邂 32邂 34邂  0mm  synth Growth  synth Growth  synth Growth
----------------------------------------------------------------------------------------------------------------------------------------------------------------
 Emergence-End Juvenile    11  35.1  21.5  28.3  20.2  24.00  347.2    0.0    5.0   65.6    0    0   11   11   10    0  0.000  0.049  0.002  0.006  0.000  0.000
 End Juvenil-Floral Init    8  34.6  22.0  28.3  16.8  24.00  347.2    0.7   10.0   39.7    0    0    8    6    5    1  0.045  0.152  0.001  0.002  0.000  0.000
 Floral Init-End Lf Grow   32  35.0  22.8  28.9  20.8  19.73  347.3   48.0   94.7  184.7    0    0   32   28   20    9  0.423  0.533  0.000  0.000  0.000  0.000
 End Lf Grth-Beg Grn Fil    9  34.6  23.4  29.0  19.4  11.57  347.4   86.0   24.3   48.7    0    0    9    8    5    6  0.491  0.513  0.000  0.000  0.000  0.000
 Grain Filling Phase       43  30.2  21.2  25.7  17.3   2.57  347.5  261.0  183.0  191.1    0    0   21    3    1   30  0.000  0.000  0.000  0.000  0.000  0.000


 Planting to Harvest      110  33.0  22.0  27.5  18.9  12.93  347.4  395.7  325.9  569.8    0    0   88   61   45   46  0.167  0.213  0.000  0.001  0.000  0.000
----------------------------------------------------------------------------------------------------------------------------------------------------------------


*Resource Productivity
 Growing season length: 110 days 

 Precipitation during growing season       395.7 mm[rain]
   Dry Matter Productivity                  2.10 kg[DM]/m3[rain]          =   21.0 kg[DM]/ha per mm[rain]
   Yield Productivity                       1.07 kg[grain yield]/m3[rain] =   10.7 kg[yield]/ha per mm[rain]

 Evapotranspiration during growing season  325.9 mm[ET]
   Dry Matter Productivity                  2.55 kg[DM]/m3[ET]            =   25.5 kg[DM]/ha per mm[ET]
   Yield Productivity                       1.30 kg[grain yield]/m3[ET]   =   13.0 kg[yield]/ha per mm[ET]

 Transpiration during growing season       212.8 mm[EP]
   Dry Matter Productivity                  3.91 kg[DM]/m3[EP]            =   39.1 kg[DM]/ha per mm[EP]
   Yield Productivity                       1.99 kg[grain yield]/m3[EP]   =   19.9 kg[yield]/ha per mm[EP]

 N applied during growing season            162. kg[N applied]/ha
   Dry Matter Productivity                  51.3 kg[DM]/kg[N applied]
   Yield Productivity                       26.1 kg[yield]/kg[N applied]

 N uptake during growing season              127 kg[N uptake]/ha
   Dry Matter Productivity                  65.5 kg[DM]/kg[N uptake]
   Yield Productivity                       33.3 kg[yield]/kg[N uptake]

--------------------------------------------------------------------------------------------------------------

                     Maize YIELD :     4228 kg/ha    [Dry weight] 

**************************************************************************************************************

*DSSAT Cropping System Model Ver. 4.6.1.000 -release      OCT 02, 2017; 13:01:02
                                                                                
*RUN   4        : P07/29                    MZCER046 ANES1986    4              
 MODEL          : MZCER046 - Maize                                              
 EXPERIMENT     : ANES1986 MZ  Analisis a침os de bajo rendimiento Espinal       
 DATA PATH      : C:\DSSAT46\maize\                                             
 TREATMENT  4   : P07/29                    MZCER046                            
                                                                                
                                                                                
 CROP           : Maize            CULTIVAR : FNC3056          ECOTYPE :IB0001  
 STARTING DATE  : JUN 29 1986                                                   
 PLANTING DATE  : JUL 29 1986        PLANTS/m2 :  6.2     ROW SPACING :  80.cm  
 WEATHER        : CNAT   1986                                                   
 SOIL           : CCESPI2017     TEXTURE : SL    -   Suelo Espinal Calibraci    
 SOIL INITIAL C : DEPTH:100cm EXTR. H2O: 83.6mm  NO3:100.0kg/ha  NH4: 72.3kg/ha 
 WATER BALANCE  : RAINFED                                                       
 IRRIGATION     : NOT IRRIGATED                                                 
 NITROGEN BAL.  : SOIL-N & N-UPTAKE SIMULATION; NO N-FIXATION                   
 N-FERTILIZER   :      162 kg/ha IN     6 APPLICATIONS                          
 RESIDUE/MANURE : INITIAL :     0 kg/ha ;       0 kg/ha IN     0 APPLICATIONS   
 ENVIRONM. OPT. : DAYL=    0.00  SRAD=    0.00  TMAX=    0.00  TMIN=    0.00    
                  RAIN=    0.00  CO2 =    0.00  DEW =    0.00  WIND=    0.00    
 SIMULATION OPT : WATER   :Y  NITROGEN:Y  N-FIX:N  PHOSPH :N  PESTS  :N         
                  PHOTO   :C  ET      :R  INFIL:S  HYDROL :R  SOM    :G         
                  CO2 347ppm  NSWIT   :1  EVAP :S  SOIL   :2  STEMP  :D         
 MANAGEMENT OPT : PLANTING:R  IRRIG   :N  FERT :D  RESIDUE:R  HARVEST:M         
                  WEATHER :M  TILLAGE :N                                        
                                                                                
*SUMMARY OF SOIL AND GENETIC INPUT PARAMETERS                                   
                                                                                
   SOIL LOWER UPPER   SAT  EXTR  INIT   ROOT   BULK     pH    NO3    NH4    ORG 
  DEPTH LIMIT LIMIT    SW    SW    SW   DIST   DENS                          C  
   cm   cm3/cm3    cm3/cm3    cm3/cm3         g/cm3         ugN/g  ugN/g     %  
------------------------------------------------------------------------------- 
  0-  5 0.160 0.252 0.376 0.092 0.252   1.00   1.69   6.60   8.90   4.51   0.45 
  5- 15 0.160 0.252 0.376 0.092 0.252   1.00   1.69   6.60   8.90   4.51   0.45 
 15- 30 0.160 0.252 0.376 0.092 0.252   1.00   1.69   6.60   8.90   4.51   0.45 
 30- 53 0.120 0.200 0.440 0.080 0.200   0.27   1.40   7.10   5.60   5.04   0.17 
 53- 77 0.120 0.200 0.440 0.080 0.200   0.27   1.40   7.10   5.60   5.04   0.17 
 77-100 0.120 0.200 0.440 0.080 0.200   0.27   1.40   7.10   5.60   5.04   0.17 
                                                                                
TOT-100  13.2  21.6  42.1   8.4  21.6  <--cm   -  kg/ha-->  100.0   72.3  39475 
SOIL ALBEDO    : 0.09      EVAPORATION LIMIT : 6.00         MIN. FACTOR  : 1.00 
RUNOFF CURVE # :76.00      DRAINAGE RATE     : 0.60         FERT. FACTOR : 1.00 
                                                                                
 Maize      CULTIVAR :CI0003-FNC3056            ECOTYPE :IB0001                 
 P1     : 233.00  P2     : 0.5000  P5     : 976.00                              
 G2     : 956.00  G3     :  7.500  PHINT  : 45.600                              


*SIMULATED CROP AND SOIL STATUS AT MAIN DEVELOPMENT STAGES

 RUN NO.     4     P07/29                  

        CROP GROWTH     BIOMASS         LEAF   CROP N     STRESS      STRESS                                           
   DATE  AGE STAGE        kg/ha    LAI   NUM  kg/ha  %   H2O  Nitr Phos1 Phos2  RSTG                                   
 ------  --- ----------   -----  -----  ----  ---  ---  ----  ----  ----  ----  ----                                   
 29 JUN    0 Start Sim        0   0.00   0.0    0  0.0  0.00  0.00  0.00  0.00     7
 29 JUL    0 Sowing           0   0.00   0.0    0  0.0  0.00  0.00  0.00  0.00     8
 30 JUL    1 Germinate        0   0.00   0.0    0  0.0  0.00  0.00  0.00  0.00     9
  3 AUG    5 Emergence       25   0.00   2.2    1  4.4  0.00  0.01  0.00  0.00     1
 14 AUG   16 End Juveni     146   0.30   8.1    5  3.4  0.08  0.00  0.00  0.00     2
 22 AUG   24 Floral Ini     588   0.95  11.6   21  3.6  0.06  0.00  0.00  0.00     3
 23 SEP   56 75% Silkin    3395   1.42  24.0   80  2.4  0.58  0.00  0.00  0.00     4
  2 OCT   65 Beg Gr Fil    4850   1.42  24.0   80  1.7  0.00  0.00  0.00  0.00     5
 13 NOV  107 End Gr Fil   11638   1.22  24.0  153  1.3  0.00  0.00  0.00  0.00     6
 16 NOV  110 Maturity     11638   1.22  24.0  153  1.3  0.00  0.00  0.00  0.00    10
 16 NOV  110 Harvest      11638   1.22  24.0  153  1.3  0.00  0.00  0.00  0.00    10


*MAIN GROWTH AND DEVELOPMENT VARIABLES

@     VARIABLE                                         SIMULATED     MEASURED
      --------                                         ---------     --------
      Anthesis day (dap)                                      56          -99
      Physiological maturity day (dap)                       110          -99
      Yield at harvest maturity (kg [dm]/ha)                6957          -99
      Number at maturity (no/m2)                            2257          -99
      Unit wt at maturity (g [dm]/unit)                   0.3083          -99
      Number at maturity (no/unit)                         364.0          -99
      Tops weight at maturity (kg [dm]/ha)                 11638          -99
      By-product produced (stalk) at maturity (kg[dm]/ha    4730          -99
      Leaf area index, maximum                              2.27          -99
      Harvest index at maturity                            0.598          -99
      Grain N at maturity (kg/ha)                            120          -99
      Tops N at maturity (kg/ha)                             153          -99
      Stem N at maturity (kg/ha)                              33          -99
      Grain N at maturity (%)                                1.7          -99
      Tops weight at anthesis (kg [dm]/ha)                  3207          -99
      Tops N at anthesis (kg/ha)                              80          -99
      Leaf number per stem at maturity                     23.98          -99
      Emergence day (dap)                                      5          -99


*ENVIRONMENTAL AND STRESS FACTORS

 |-----Development Phase------|--------------------------------------Environment--------------------------------------|-----------------Stress-----------------|
                              |---------------Average--------------|-----Cumulative-----|--------Count of days--------|          (0=Min, 1=Max Stress)         |
                         Time  Temp  Temp  Temp Solar Photop                Evapo    Pot TMIN TMIN TMAX TMAX TMAX RAIN|----Water----|---Nitrogen--|-Phosphorus-|
                         Span   Max   Min  Mean   Rad  [day]    CO2   Rain  Trans     ET   <    <    >    >    >    >   Photo         Photo         Photo
                         days    邂    邂    邂 MJ/m2     hr    ppm     mm     mm     mm  0邂  2邂 30邂 32邂 34邂  0mm  synth Growth  synth Growth  synth Growth
----------------------------------------------------------------------------------------------------------------------------------------------------------------
 Emergence-End Juvenile    11  35.7  22.1  28.9  19.4  24.00  347.2    0.0    4.6   65.2    0    0   11   11   10    0  0.000  0.054  0.002  0.005  0.000  0.000
 End Juvenil-Floral Init    8  32.8  21.9  27.4  17.7  24.00  347.3   30.3   20.5   39.4    0    0    8    4    2    5  0.022  0.096  0.001  0.002  0.000  0.000
 Floral Init-End Lf Grow   32  35.5  23.3  29.4  20.9  17.89  347.4   38.8   87.4  188.5    0    0   32   30   24    8  0.474  0.580  0.000  0.000  0.000  0.000
 End Lf Grth-Beg Grn Fil    9  31.0  21.3  26.1  17.5   9.84  347.4  108.4   40.5   40.5    0    0    6    4    1    7  0.000  0.000  0.000  0.000  0.000  0.000
 Grain Filling Phase       42  30.5  21.5  26.0  17.7   1.54  347.5  218.2  178.8  189.4    0    0   23    4    0   26  0.000  0.000  0.000  0.000  0.000  0.000


 Planting to Harvest      110  32.9  22.1  27.5  18.9  11.84  347.4  395.7  343.0  566.0    0    0   88   60   41   46  0.139  0.181  0.000  0.001  0.000  0.000
----------------------------------------------------------------------------------------------------------------------------------------------------------------


*Resource Productivity
 Growing season length: 110 days 

 Precipitation during growing season       395.7 mm[rain]
   Dry Matter Productivity                  2.94 kg[DM]/m3[rain]          =   29.4 kg[DM]/ha per mm[rain]
   Yield Productivity                       1.76 kg[grain yield]/m3[rain] =   17.6 kg[yield]/ha per mm[rain]

 Evapotranspiration during growing season  343.0 mm[ET]
   Dry Matter Productivity                  3.39 kg[DM]/m3[ET]            =   33.9 kg[DM]/ha per mm[ET]
   Yield Productivity                       2.03 kg[grain yield]/m3[ET]   =   20.3 kg[yield]/ha per mm[ET]

 Transpiration during growing season       231.8 mm[EP]
   Dry Matter Productivity                  5.02 kg[DM]/m3[EP]            =   50.2 kg[DM]/ha per mm[EP]
   Yield Productivity                       3.00 kg[grain yield]/m3[EP]   =   30.0 kg[yield]/ha per mm[EP]

 N applied during growing season            162. kg[N applied]/ha
   Dry Matter Productivity                  71.8 kg[DM]/kg[N applied]
   Yield Productivity                       42.9 kg[yield]/kg[N applied]

 N uptake during growing season              170 kg[N uptake]/ha
   Dry Matter Productivity                  68.5 kg[DM]/kg[N uptake]
   Yield Productivity                       40.9 kg[yield]/kg[N uptake]

--------------------------------------------------------------------------------------------------------------

                     Maize YIELD :     6957 kg/ha    [Dry weight] 

**************************************************************************************************************

*DSSAT Cropping System Model Ver. 4.6.1.000 -release      OCT 02, 2017; 13:01:02
                                                                                
*RUN   5        : P08/03                    MZCER046 ANES1986    5              
 MODEL          : MZCER046 - Maize                                              
 EXPERIMENT     : ANES1986 MZ  Analisis a침os de bajo rendimiento Espinal       
 DATA PATH      : C:\DSSAT46\maize\                                             
 TREATMENT  5   : P08/03                    MZCER046                            
                                                                                
                                                                                
 CROP           : Maize            CULTIVAR : FNC3056          ECOTYPE :IB0001  
 STARTING DATE  : JUL  4 1986                                                   
 PLANTING DATE  : AUG  3 1986        PLANTS/m2 :  6.2     ROW SPACING :  80.cm  
 WEATHER        : CNAT   1986                                                   
 SOIL           : CCESPI2017     TEXTURE : SL    -   Suelo Espinal Calibraci    
 SOIL INITIAL C : DEPTH:100cm EXTR. H2O: 83.6mm  NO3:100.0kg/ha  NH4: 72.3kg/ha 
 WATER BALANCE  : RAINFED                                                       
 IRRIGATION     : NOT IRRIGATED                                                 
 NITROGEN BAL.  : SOIL-N & N-UPTAKE SIMULATION; NO N-FIXATION                   
 N-FERTILIZER   :      162 kg/ha IN     6 APPLICATIONS                          
 RESIDUE/MANURE : INITIAL :     0 kg/ha ;       0 kg/ha IN     0 APPLICATIONS   
 ENVIRONM. OPT. : DAYL=    0.00  SRAD=    0.00  TMAX=    0.00  TMIN=    0.00    
                  RAIN=    0.00  CO2 =    0.00  DEW =    0.00  WIND=    0.00    
 SIMULATION OPT : WATER   :Y  NITROGEN:Y  N-FIX:N  PHOSPH :N  PESTS  :N         
                  PHOTO   :C  ET      :R  INFIL:S  HYDROL :R  SOM    :G         
                  CO2 347ppm  NSWIT   :1  EVAP :S  SOIL   :2  STEMP  :D         
 MANAGEMENT OPT : PLANTING:R  IRRIG   :N  FERT :D  RESIDUE:R  HARVEST:M         
                  WEATHER :M  TILLAGE :N                                        
                                                                                
*SUMMARY OF SOIL AND GENETIC INPUT PARAMETERS                                   
                                                                                
   SOIL LOWER UPPER   SAT  EXTR  INIT   ROOT   BULK     pH    NO3    NH4    ORG 
  DEPTH LIMIT LIMIT    SW    SW    SW   DIST   DENS                          C  
   cm   cm3/cm3    cm3/cm3    cm3/cm3         g/cm3         ugN/g  ugN/g     %  
------------------------------------------------------------------------------- 
  0-  5 0.160 0.252 0.376 0.092 0.252   1.00   1.69   6.60   8.90   4.51   0.45 
  5- 15 0.160 0.252 0.376 0.092 0.252   1.00   1.69   6.60   8.90   4.51   0.45 
 15- 30 0.160 0.252 0.376 0.092 0.252   1.00   1.69   6.60   8.90   4.51   0.45 
 30- 53 0.120 0.200 0.440 0.080 0.200   0.27   1.40   7.10   5.60   5.04   0.17 
 53- 77 0.120 0.200 0.440 0.080 0.200   0.27   1.40   7.10   5.60   5.04   0.17 
 77-100 0.120 0.200 0.440 0.080 0.200   0.27   1.40   7.10   5.60   5.04   0.17 
                                                                                
TOT-100  13.2  21.6  42.1   8.4  21.6  <--cm   -  kg/ha-->  100.0   72.3  39475 
SOIL ALBEDO    : 0.09      EVAPORATION LIMIT : 6.00         MIN. FACTOR  : 1.00 
RUNOFF CURVE # :76.00      DRAINAGE RATE     : 0.60         FERT. FACTOR : 1.00 
                                                                                
 Maize      CULTIVAR :CI0003-FNC3056            ECOTYPE :IB0001                 
 P1     : 233.00  P2     : 0.5000  P5     : 976.00                              
 G2     : 956.00  G3     :  7.500  PHINT  : 45.600                              


*SIMULATED CROP AND SOIL STATUS AT MAIN DEVELOPMENT STAGES

 RUN NO.     5     P08/03                  

        CROP GROWTH     BIOMASS         LEAF   CROP N     STRESS      STRESS                                           
   DATE  AGE STAGE        kg/ha    LAI   NUM  kg/ha  %   H2O  Nitr Phos1 Phos2  RSTG                                   
 ------  --- ----------   -----  -----  ----  ---  ---  ----  ----  ----  ----  ----                                   
  4 JUL    0 Start Sim        0   0.00   0.0    0  0.0  0.00  0.00  0.00  0.00     7
  3 AUG    0 Sowing           0   0.00   0.0    0  0.0  0.00  0.00  0.00  0.00     8
  4 AUG    1 Germinate        0   0.00   0.0    0  0.0  0.00  0.00  0.00  0.00     9
  8 AUG    5 Emergence       25   0.00   2.2    1  4.4  0.00  0.01  0.00  0.00     1
 19 AUG   16 End Juveni     139   0.29   7.8    4  3.2  0.05  0.00  0.00  0.00     2
 26 AUG   23 Floral Ini     548   0.90  11.0   20  3.6  0.00  0.00  0.00  0.00     3
 26 SEP   54 75% Silkin    3634   1.62  22.6   74  2.0  0.51  0.00  0.00  0.00     4
  6 OCT   64 Beg Gr Fil    5342   1.62  22.6   74  1.4  0.00  0.00  0.00  0.00     5
 16 NOV  105 End Gr Fil   12169   1.18  22.6  154  1.3  0.00  0.00  0.00  0.00     6
 19 NOV  108 Maturity     12169   1.18  22.6  154  1.3  0.00  0.00  0.00  0.00    10
 19 NOV  108 Harvest      12169   1.18  22.6  154  1.3  0.00  0.00  0.00  0.00    10


*MAIN GROWTH AND DEVELOPMENT VARIABLES

@     VARIABLE                                         SIMULATED     MEASURED
      --------                                         ---------     --------
      Anthesis day (dap)                                      54          -99
      Physiological maturity day (dap)                       108          -99
      Yield at harvest maturity (kg [dm]/ha)                6979          -99
      Number at maturity (no/m2)                            2334          -99
      Unit wt at maturity (g [dm]/unit)                   0.2991          -99
      Number at maturity (no/unit)                         376.4          -99
      Tops weight at maturity (kg [dm]/ha)                 12169          -99
      By-product produced (stalk) at maturity (kg[dm]/ha    5238          -99
      Leaf area index, maximum                              2.01          -99
      Harvest index at maturity                            0.574          -99
      Grain N at maturity (kg/ha)                            121          -99
      Tops N at maturity (kg/ha)                             154          -99
      Stem N at maturity (kg/ha)                              34          -99
      Grain N at maturity (%)                                1.7          -99
      Tops weight at anthesis (kg [dm]/ha)                  3462          -99
      Tops N at anthesis (kg/ha)                              73          -99
      Leaf number per stem at maturity                     22.64          -99
      Emergence day (dap)                                      5          -99


*ENVIRONMENTAL AND STRESS FACTORS

 |-----Development Phase------|--------------------------------------Environment--------------------------------------|-----------------Stress-----------------|
                              |---------------Average--------------|-----Cumulative-----|--------Count of days--------|          (0=Min, 1=Max Stress)         |
                         Time  Temp  Temp  Temp Solar Photop                Evapo    Pot TMIN TMIN TMAX TMAX TMAX RAIN|----Water----|---Nitrogen--|-Phosphorus-|
                         Span   Max   Min  Mean   Rad  [day]    CO2   Rain  Trans     ET   <    <    >    >    >    >   Photo         Photo         Photo
                         days    邂    邂    邂 MJ/m2     hr    ppm     mm     mm     mm  0邂  2邂 30邂 32邂 34邂  0mm  synth Growth  synth Growth  synth Growth
----------------------------------------------------------------------------------------------------------------------------------------------------------------
 Emergence-End Juvenile    11  34.4  21.5  28.0  17.8  24.00  347.2   19.1    9.3   58.9    0    0   11    8    6    2  0.000  0.046  0.002  0.004  0.000  0.000
 End Juvenil-Floral Init    7  33.7  22.1  27.9  20.9  24.00  347.3   18.6   24.9   42.0    0    0    7    6    3    5  0.000  0.000  0.001  0.002  0.000  0.000
 Floral Init-End Lf Grow   31  35.4  23.3  29.3  20.6  16.43  347.4   85.2   89.3  181.3    0    0   31   28   22    8  0.416  0.508  0.000  0.000  0.000  0.000
 End Lf Grth-Beg Grn Fil   10  30.1  21.1  25.6  16.8   8.55  347.4  104.5   42.4   42.5    0    0    5    2    1    8  0.000  0.000  0.000  0.000  0.000  0.000
 Grain Filling Phase       41  30.7  21.6  26.1  17.7   0.86  347.5  168.3  172.6  184.4    0    0   24    6    0   23  0.000  0.000  0.000  0.000  0.000  0.000


 Planting to Harvest      108  32.8  22.2  27.5  18.9  10.94  347.4  397.7  350.4  556.6    0    0   86   57   38   47  0.119  0.151  0.000  0.001  0.000  0.000
----------------------------------------------------------------------------------------------------------------------------------------------------------------


*Resource Productivity
 Growing season length: 108 days 

 Precipitation during growing season       397.7 mm[rain]
   Dry Matter Productivity                  3.06 kg[DM]/m3[rain]          =   30.6 kg[DM]/ha per mm[rain]
   Yield Productivity                       1.75 kg[grain yield]/m3[rain] =   17.5 kg[yield]/ha per mm[rain]

 Evapotranspiration during growing season  350.4 mm[ET]
   Dry Matter Productivity                  3.47 kg[DM]/m3[ET]            =   34.7 kg[DM]/ha per mm[ET]
   Yield Productivity                       1.99 kg[grain yield]/m3[ET]   =   19.9 kg[yield]/ha per mm[ET]

 Transpiration during growing season       239.6 mm[EP]
   Dry Matter Productivity                  5.08 kg[DM]/m3[EP]            =   50.8 kg[DM]/ha per mm[EP]
   Yield Productivity                       2.91 kg[grain yield]/m3[EP]   =   29.1 kg[yield]/ha per mm[EP]

 N applied during growing season            162. kg[N applied]/ha
   Dry Matter Productivity                  75.1 kg[DM]/kg[N applied]
   Yield Productivity                       43.1 kg[yield]/kg[N applied]

 N uptake during growing season              172 kg[N uptake]/ha
   Dry Matter Productivity                  70.8 kg[DM]/kg[N uptake]
   Yield Productivity                       40.6 kg[yield]/kg[N uptake]

--------------------------------------------------------------------------------------------------------------

                     Maize YIELD :     6979 kg/ha    [Dry weight] 

**************************************************************************************************************

*DSSAT Cropping System Model Ver. 4.6.1.000 -release      OCT 02, 2017; 13:01:02
                                                                                
*RUN   6        : P08/08                    MZCER046 ANES1986    6              
 MODEL          : MZCER046 - Maize                                              
 EXPERIMENT     : ANES1986 MZ  Analisis a침os de bajo rendimiento Espinal       
 DATA PATH      : C:\DSSAT46\maize\                                             
 TREATMENT  6   : P08/08                    MZCER046                            
                                                                                
                                                                                
 CROP           : Maize            CULTIVAR : FNC3056          ECOTYPE :IB0001  
 STARTING DATE  : JUL  9 1986                                                   
 PLANTING DATE  : AUG  8 1986        PLANTS/m2 :  6.2     ROW SPACING :  80.cm  
 WEATHER        : CNAT   1986                                                   
 SOIL           : CCESPI2017     TEXTURE : SL    -   Suelo Espinal Calibraci    
 SOIL INITIAL C : DEPTH:100cm EXTR. H2O: 83.6mm  NO3:100.0kg/ha  NH4: 72.3kg/ha 
 WATER BALANCE  : RAINFED                                                       
 IRRIGATION     : NOT IRRIGATED                                                 
 NITROGEN BAL.  : SOIL-N & N-UPTAKE SIMULATION; NO N-FIXATION                   
 N-FERTILIZER   :      162 kg/ha IN     6 APPLICATIONS                          
 RESIDUE/MANURE : INITIAL :     0 kg/ha ;       0 kg/ha IN     0 APPLICATIONS   
 ENVIRONM. OPT. : DAYL=    0.00  SRAD=    0.00  TMAX=    0.00  TMIN=    0.00    
                  RAIN=    0.00  CO2 =    0.00  DEW =    0.00  WIND=    0.00    
 SIMULATION OPT : WATER   :Y  NITROGEN:Y  N-FIX:N  PHOSPH :N  PESTS  :N         
                  PHOTO   :C  ET      :R  INFIL:S  HYDROL :R  SOM    :G         
                  CO2 347ppm  NSWIT   :1  EVAP :S  SOIL   :2  STEMP  :D         
 MANAGEMENT OPT : PLANTING:R  IRRIG   :N  FERT :D  RESIDUE:R  HARVEST:M         
                  WEATHER :M  TILLAGE :N                                        
                                                                                
*SUMMARY OF SOIL AND GENETIC INPUT PARAMETERS                                   
                                                                                
   SOIL LOWER UPPER   SAT  EXTR  INIT   ROOT   BULK     pH    NO3    NH4    ORG 
  DEPTH LIMIT LIMIT    SW    SW    SW   DIST   DENS                          C  
   cm   cm3/cm3    cm3/cm3    cm3/cm3         g/cm3         ugN/g  ugN/g     %  
------------------------------------------------------------------------------- 
  0-  5 0.160 0.252 0.376 0.092 0.252   1.00   1.69   6.60   8.90   4.51   0.45 
  5- 15 0.160 0.252 0.376 0.092 0.252   1.00   1.69   6.60   8.90   4.51   0.45 
 15- 30 0.160 0.252 0.376 0.092 0.252   1.00   1.69   6.60   8.90   4.51   0.45 
 30- 53 0.120 0.200 0.440 0.080 0.200   0.27   1.40   7.10   5.60   5.04   0.17 
 53- 77 0.120 0.200 0.440 0.080 0.200   0.27   1.40   7.10   5.60   5.04   0.17 
 77-100 0.120 0.200 0.440 0.080 0.200   0.27   1.40   7.10   5.60   5.04   0.17 
                                                                                
TOT-100  13.2  21.6  42.1   8.4  21.6  <--cm   -  kg/ha-->  100.0   72.3  39475 
SOIL ALBEDO    : 0.09      EVAPORATION LIMIT : 6.00         MIN. FACTOR  : 1.00 
RUNOFF CURVE # :76.00      DRAINAGE RATE     : 0.60         FERT. FACTOR : 1.00 
                                                                                
 Maize      CULTIVAR :CI0003-FNC3056            ECOTYPE :IB0001                 
 P1     : 233.00  P2     : 0.5000  P5     : 976.00                              
 G2     : 956.00  G3     :  7.500  PHINT  : 45.600                              


*SIMULATED CROP AND SOIL STATUS AT MAIN DEVELOPMENT STAGES

 RUN NO.     6     P08/08                  

        CROP GROWTH     BIOMASS         LEAF   CROP N     STRESS      STRESS                                           
   DATE  AGE STAGE        kg/ha    LAI   NUM  kg/ha  %   H2O  Nitr Phos1 Phos2  RSTG                                   
 ------  --- ----------   -----  -----  ----  ---  ---  ----  ----  ----  ----  ----                                   
  9 JUL    0 Start Sim        0   0.00   0.0    0  0.0  0.00  0.00  0.00  0.00     7
  8 AUG    0 Sowing           0   0.00   0.0    0  0.0  0.00  0.00  0.00  0.00     8
  9 AUG    1 Germinate        0   0.00   0.0    0  0.0  0.00  0.00  0.00  0.00     9
 13 AUG    5 Emergence       25   0.00   2.1    1  4.4  0.00  0.01  0.00  0.00     1
 24 AUG   16 End Juveni     136   0.28   7.7    4  3.3  0.00  0.00  0.00  0.00     2
 30 AUG   22 Floral Ini     486   0.82  10.6   18  3.6  0.00  0.00  0.00  0.00     3
 30 SEP   53 75% Silkin    3719   1.70  22.2   75  2.0  0.43  0.00  0.00  0.00     4
  9 OCT   62 Beg Gr Fil    5604   1.70  22.2   77  1.4  0.00  0.00  0.00  0.00     5
 20 NOV  104 End Gr Fil   13501   1.02  22.2  175  1.3  0.01  0.00  0.00  0.00     6
 22 NOV  106 Maturity     13501   1.02  22.2  175  1.3  0.30  0.00  0.00  0.00    10
 22 NOV  106 Harvest      13501   1.02  22.2  175  1.3  0.00  0.00  0.00  0.00    10


*MAIN GROWTH AND DEVELOPMENT VARIABLES

@     VARIABLE                                         SIMULATED     MEASURED
      --------                                         ---------     --------
      Anthesis day (dap)                                      53          -99
      Physiological maturity day (dap)                       106          -99
      Yield at harvest maturity (kg [dm]/ha)                8098          -99
      Number at maturity (no/m2)                            2665          -99
      Unit wt at maturity (g [dm]/unit)                   0.3038          -99
      Number at maturity (no/unit)                         429.9          -99
      Tops weight at maturity (kg [dm]/ha)                 13501          -99
      By-product produced (stalk) at maturity (kg[dm]/ha    5445          -99
      Leaf area index, maximum                              1.77          -99
      Harvest index at maturity                            0.600          -99
      Grain N at maturity (kg/ha)                            140          -99
      Tops N at maturity (kg/ha)                             175          -99
      Stem N at maturity (kg/ha)                              35          -99
      Grain N at maturity (%)                                1.7          -99
      Tops weight at anthesis (kg [dm]/ha)                  3527          -99
      Tops N at anthesis (kg/ha)                              73          -99
      Leaf number per stem at maturity                     22.16          -99
      Emergence day (dap)                                      5          -99


*ENVIRONMENTAL AND STRESS FACTORS

 |-----Development Phase------|--------------------------------------Environment--------------------------------------|-----------------Stress-----------------|
                              |---------------Average--------------|-----Cumulative-----|--------Count of days--------|          (0=Min, 1=Max Stress)         |
                         Time  Temp  Temp  Temp Solar Photop                Evapo    Pot TMIN TMIN TMAX TMAX TMAX RAIN|----Water----|---Nitrogen--|-Phosphorus-|
                         Span   Max   Min  Mean   Rad  [day]    CO2   Rain  Trans     ET   <    <    >    >    >    >   Photo         Photo         Photo
                         days    邂    邂    邂 MJ/m2     hr    ppm     mm     mm     mm  0邂  2邂 30邂 32邂 34邂  0mm  synth Growth  synth Growth  synth Growth
----------------------------------------------------------------------------------------------------------------------------------------------------------------
 Emergence-End Juvenile    11  33.1  21.9  27.5  18.4  24.00  347.3   30.3   22.6   59.5    0    0   11    7    3    5  0.000  0.000  0.002  0.005  0.000  0.000
 End Juvenil-Floral Init    6  35.0  22.4  28.7  21.9  23.87  347.3    7.4   18.6   39.0    0    0    6    6    4    2  0.000  0.000  0.000  0.001  0.000  0.000
 Floral Init-End Lf Grow   31  34.6  23.0  28.8  19.5  14.61  347.4  126.1   87.8  170.9    0    0   28   25   19   12  0.347  0.432  0.000  0.000  0.000  0.000
 End Lf Grth-Beg Grn Fil    9  30.9  21.0  26.0  19.0   7.16  347.4   97.2   43.4   43.4    0    0    7    2    1    7  0.000  0.000  0.000  0.000  0.000  0.000
 Grain Filling Phase       42  30.8  21.8  26.3  17.9   0.42  347.6  136.7  175.3  191.1    0    0   25    7    1   21  0.000  0.000  0.000  0.000  0.000  0.000


 Planting to Harvest      106  32.7  22.1  27.4  18.9  10.02  347.4  397.7  355.1  545.5    0    0   84   53   33   47  0.102  0.131  0.000  0.001  0.000  0.000
----------------------------------------------------------------------------------------------------------------------------------------------------------------


*Resource Productivity
 Growing season length: 106 days 

 Precipitation during growing season       397.7 mm[rain]
   Dry Matter Productivity                  3.39 kg[DM]/m3[rain]          =   33.9 kg[DM]/ha per mm[rain]
   Yield Productivity                       2.04 kg[grain yield]/m3[rain] =   20.4 kg[yield]/ha per mm[rain]

 Evapotranspiration during growing season  355.1 mm[ET]
   Dry Matter Productivity                  3.80 kg[DM]/m3[ET]            =   38.0 kg[DM]/ha per mm[ET]
   Yield Productivity                       2.28 kg[grain yield]/m3[ET]   =   22.8 kg[yield]/ha per mm[ET]

 Transpiration during growing season       239.3 mm[EP]
   Dry Matter Productivity                  5.64 kg[DM]/m3[EP]            =   56.4 kg[DM]/ha per mm[EP]
   Yield Productivity                       3.38 kg[grain yield]/m3[EP]   =   33.8 kg[yield]/ha per mm[EP]

 N applied during growing season            162. kg[N applied]/ha
   Dry Matter Productivity                  83.3 kg[DM]/kg[N applied]
   Yield Productivity                       50.0 kg[yield]/kg[N applied]

 N uptake during growing season              189 kg[N uptake]/ha
   Dry Matter Productivity                  71.4 kg[DM]/kg[N uptake]
   Yield Productivity                       42.8 kg[yield]/kg[N uptake]

--------------------------------------------------------------------------------------------------------------

                     Maize YIELD :     8098 kg/ha    [Dry weight] 

**************************************************************************************************************

*DSSAT Cropping System Model Ver. 4.6.1.000 -release      OCT 02, 2017; 13:01:02
                                                                                
*RUN   7        : P08/13                    MZCER046 ANES1986    7              
 MODEL          : MZCER046 - Maize                                              
 EXPERIMENT     : ANES1986 MZ  Analisis a침os de bajo rendimiento Espinal       
 DATA PATH      : C:\DSSAT46\maize\                                             
 TREATMENT  7   : P08/13                    MZCER046                            
                                                                                
                                                                                
 CROP           : Maize            CULTIVAR : FNC3056          ECOTYPE :IB0001  
 STARTING DATE  : JUL 14 1986                                                   
 PLANTING DATE  : AUG 13 1986        PLANTS/m2 :  6.2     ROW SPACING :  80.cm  
 WEATHER        : CNAT   1986                                                   
 SOIL           : CCESPI2017     TEXTURE : SL    -   Suelo Espinal Calibraci    
 SOIL INITIAL C : DEPTH:100cm EXTR. H2O: 83.6mm  NO3:100.0kg/ha  NH4: 72.3kg/ha 
 WATER BALANCE  : RAINFED                                                       
 IRRIGATION     : NOT IRRIGATED                                                 
 NITROGEN BAL.  : SOIL-N & N-UPTAKE SIMULATION; NO N-FIXATION                   
 N-FERTILIZER   :      162 kg/ha IN     6 APPLICATIONS                          
 RESIDUE/MANURE : INITIAL :     0 kg/ha ;       0 kg/ha IN     0 APPLICATIONS   
 ENVIRONM. OPT. : DAYL=    0.00  SRAD=    0.00  TMAX=    0.00  TMIN=    0.00    
                  RAIN=    0.00  CO2 =    0.00  DEW =    0.00  WIND=    0.00    
 SIMULATION OPT : WATER   :Y  NITROGEN:Y  N-FIX:N  PHOSPH :N  PESTS  :N         
                  PHOTO   :C  ET      :R  INFIL:S  HYDROL :R  SOM    :G         
                  CO2 347ppm  NSWIT   :1  EVAP :S  SOIL   :2  STEMP  :D         
 MANAGEMENT OPT : PLANTING:R  IRRIG   :N  FERT :D  RESIDUE:R  HARVEST:M         
                  WEATHER :M  TILLAGE :N                                        
                                                                                
*SUMMARY OF SOIL AND GENETIC INPUT PARAMETERS                                   
                                                                                
   SOIL LOWER UPPER   SAT  EXTR  INIT   ROOT   BULK     pH    NO3    NH4    ORG 
  DEPTH LIMIT LIMIT    SW    SW    SW   DIST   DENS                          C  
   cm   cm3/cm3    cm3/cm3    cm3/cm3         g/cm3         ugN/g  ugN/g     %  
------------------------------------------------------------------------------- 
  0-  5 0.160 0.252 0.376 0.092 0.252   1.00   1.69   6.60   8.90   4.51   0.45 
  5- 15 0.160 0.252 0.376 0.092 0.252   1.00   1.69   6.60   8.90   4.51   0.45 
 15- 30 0.160 0.252 0.376 0.092 0.252   1.00   1.69   6.60   8.90   4.51   0.45 
 30- 53 0.120 0.200 0.440 0.080 0.200   0.27   1.40   7.10   5.60   5.04   0.17 
 53- 77 0.120 0.200 0.440 0.080 0.200   0.27   1.40   7.10   5.60   5.04   0.17 
 77-100 0.120 0.200 0.440 0.080 0.200   0.27   1.40   7.10   5.60   5.04   0.17 
                                                                                
TOT-100  13.2  21.6  42.1   8.4  21.6  <--cm   -  kg/ha-->  100.0   72.3  39475 
SOIL ALBEDO    : 0.09      EVAPORATION LIMIT : 6.00         MIN. FACTOR  : 1.00 
RUNOFF CURVE # :76.00      DRAINAGE RATE     : 0.60         FERT. FACTOR : 1.00 
                                                                                
 Maize      CULTIVAR :CI0003-FNC3056            ECOTYPE :IB0001                 
 P1     : 233.00  P2     : 0.5000  P5     : 976.00                              
 G2     : 956.00  G3     :  7.500  PHINT  : 45.600                              


*SIMULATED CROP AND SOIL STATUS AT MAIN DEVELOPMENT STAGES

 RUN NO.     7     P08/13                  

        CROP GROWTH     BIOMASS         LEAF   CROP N     STRESS      STRESS                                           
   DATE  AGE STAGE        kg/ha    LAI   NUM  kg/ha  %   H2O  Nitr Phos1 Phos2  RSTG                                   
 ------  --- ----------   -----  -----  ----  ---  ---  ----  ----  ----  ----  ----                                   
 14 JUL    0 Start Sim        0   0.00   0.0    0  0.0  0.00  0.00  0.00  0.00     7
 13 AUG    0 Sowing           0   0.00   0.0    0  0.0  0.00  0.00  0.00  0.00     8
 14 AUG    1 Germinate        0   0.00   0.0    0  0.0  0.00  0.00  0.00  0.00     9
 18 AUG    5 Emergence       25   0.00   2.1    1  4.4  0.00  0.01  0.00  0.00     1
 29 AUG   16 End Juveni     151   0.31   7.9    5  3.2  0.00  0.00  0.00  0.00     2
  3 SEP   21 Floral Ini     420   0.73  10.2   15  3.6  0.00  0.00  0.00  0.00     3
  3 OCT   51 75% Silkin    4047   1.88  21.2   79  2.0  0.36  0.00  0.00  0.00     4
 12 OCT   60 Beg Gr Fil    5894   1.88  21.2   81  1.4  0.00  0.00  0.00  0.00     5
 22 NOV  101 End Gr Fil   13471   1.04  21.2  172  1.3  0.04  0.00  0.00  0.00     6
 25 NOV  104 Maturity     13471   1.04  21.2  172  1.3  0.20  0.00  0.00  0.00    10
 25 NOV  104 Harvest      13471   1.04  21.2  172  1.3  0.00  0.00  0.00  0.00    10


*MAIN GROWTH AND DEVELOPMENT VARIABLES

@     VARIABLE                                         SIMULATED     MEASURED
      --------                                         ---------     --------
      Anthesis day (dap)                                      51          -99
      Physiological maturity day (dap)                       104          -99
      Yield at harvest maturity (kg [dm]/ha)                7775          -99
      Number at maturity (no/m2)                            2637          -99
      Unit wt at maturity (g [dm]/unit)                   0.2948          -99
      Number at maturity (no/unit)                         425.4          -99
      Tops weight at maturity (kg [dm]/ha)                 13471          -99
      By-product produced (stalk) at maturity (kg[dm]/ha    5737          -99
      Leaf area index, maximum                              1.88          -99
      Harvest index at maturity                            0.577          -99
      Grain N at maturity (kg/ha)                            135          -99
      Tops N at maturity (kg/ha)                             172          -99
      Stem N at maturity (kg/ha)                              37          -99
      Grain N at maturity (%)                                1.7          -99
      Tops weight at anthesis (kg [dm]/ha)                  3828          -99
      Tops N at anthesis (kg/ha)                              77          -99
      Leaf number per stem at maturity                     21.25          -99
      Emergence day (dap)                                      5          -99


*ENVIRONMENTAL AND STRESS FACTORS

 |-----Development Phase------|--------------------------------------Environment--------------------------------------|-----------------Stress-----------------|
                              |---------------Average--------------|-----Cumulative-----|--------Count of days--------|          (0=Min, 1=Max Stress)         |
                         Time  Temp  Temp  Temp Solar Photop                Evapo    Pot TMIN TMIN TMAX TMAX TMAX RAIN|----Water----|---Nitrogen--|-Phosphorus-|
                         Span   Max   Min  Mean   Rad  [day]    CO2   Rain  Trans     ET   <    <    >    >    >    >   Photo         Photo         Photo
                         days    邂    邂    邂 MJ/m2     hr    ppm     mm     mm     mm  0邂  2邂 30邂 32邂 34邂  0mm  synth Growth  synth Growth  synth Growth
----------------------------------------------------------------------------------------------------------------------------------------------------------------
 Emergence-End Juvenile    11  34.1  22.2  28.1  21.4  24.00  347.3   18.6   30.8   71.4    0    0   11    9    5    5  0.000  0.000  0.003  0.006  0.000  0.000
 End Juvenil-Floral Init    5  33.8  23.7  28.8  20.3  20.99  347.3    8.4   13.1   29.4    0    0    5    3    3    1  0.000  0.000  0.001  0.001  0.000  0.000
 Floral Init-End Lf Grow   30  34.4  22.7  28.5  19.3  13.21  347.4  131.4   92.8  164.0    0    0   26   24   18   12  0.266  0.364  0.000  0.000  0.000  0.000
 End Lf Grth-Beg Grn Fil    9  30.6  21.5  26.0  17.8   5.79  347.4   83.9   40.2   40.2    0    0    6    1    0    7  0.000  0.000  0.000  0.000  0.000  0.000
 Grain Filling Phase       41  30.9  21.8  26.4  18.2   0.11  347.6  136.3  171.1  189.1    0    0   26    8    1   20  0.004  0.022  0.000  0.000  0.000  0.000


 Planting to Harvest      104  32.5  22.2  27.3  18.8   9.06  347.5  419.7  357.7  531.4    0    0   81   49   29   48  0.086  0.125  0.000  0.001  0.000  0.000
----------------------------------------------------------------------------------------------------------------------------------------------------------------


*Resource Productivity
 Growing season length: 104 days 

 Precipitation during growing season       419.7 mm[rain]
   Dry Matter Productivity                  3.21 kg[DM]/m3[rain]          =   32.1 kg[DM]/ha per mm[rain]
   Yield Productivity                       1.85 kg[grain yield]/m3[rain] =   18.5 kg[yield]/ha per mm[rain]

 Evapotranspiration during growing season  357.7 mm[ET]
   Dry Matter Productivity                  3.77 kg[DM]/m3[ET]            =   37.7 kg[DM]/ha per mm[ET]
   Yield Productivity                       2.17 kg[grain yield]/m3[ET]   =   21.7 kg[yield]/ha per mm[ET]

 Transpiration during growing season       243.9 mm[EP]
   Dry Matter Productivity                  5.52 kg[DM]/m3[EP]            =   55.2 kg[DM]/ha per mm[EP]
   Yield Productivity                       3.19 kg[grain yield]/m3[EP]   =   31.9 kg[yield]/ha per mm[EP]

 N applied during growing season            162. kg[N applied]/ha
   Dry Matter Productivity                  83.2 kg[DM]/kg[N applied]
   Yield Productivity                       48.0 kg[yield]/kg[N applied]

 N uptake during growing season              186 kg[N uptake]/ha
   Dry Matter Productivity                  72.4 kg[DM]/kg[N uptake]
   Yield Productivity                       41.8 kg[yield]/kg[N uptake]

--------------------------------------------------------------------------------------------------------------

                     Maize YIELD :     7775 kg/ha    [Dry weight] 

**************************************************************************************************************

*DSSAT Cropping System Model Ver. 4.6.1.000 -release      OCT 02, 2017; 13:01:02
                                                                                
*RUN   8        : P08/18                    MZCER046 ANES1986    8              
 MODEL          : MZCER046 - Maize                                              
 EXPERIMENT     : ANES1986 MZ  Analisis a침os de bajo rendimiento Espinal       
 DATA PATH      : C:\DSSAT46\maize\                                             
 TREATMENT  8   : P08/18                    MZCER046                            
                                                                                
                                                                                
 CROP           : Maize            CULTIVAR : FNC3056          ECOTYPE :IB0001  
 STARTING DATE  : JUL 19 1986                                                   
 PLANTING DATE  : AUG 18 1986        PLANTS/m2 :  6.2     ROW SPACING :  80.cm  
 WEATHER        : CNAT   1986                                                   
 SOIL           : CCESPI2017     TEXTURE : SL    -   Suelo Espinal Calibraci    
 SOIL INITIAL C : DEPTH:100cm EXTR. H2O: 83.6mm  NO3:100.0kg/ha  NH4: 72.3kg/ha 
 WATER BALANCE  : RAINFED                                                       
 IRRIGATION     : NOT IRRIGATED                                                 
 NITROGEN BAL.  : SOIL-N & N-UPTAKE SIMULATION; NO N-FIXATION                   
 N-FERTILIZER   :      162 kg/ha IN     6 APPLICATIONS                          
 RESIDUE/MANURE : INITIAL :     0 kg/ha ;       0 kg/ha IN     0 APPLICATIONS   
 ENVIRONM. OPT. : DAYL=    0.00  SRAD=    0.00  TMAX=    0.00  TMIN=    0.00    
                  RAIN=    0.00  CO2 =    0.00  DEW =    0.00  WIND=    0.00    
 SIMULATION OPT : WATER   :Y  NITROGEN:Y  N-FIX:N  PHOSPH :N  PESTS  :N         
                  PHOTO   :C  ET      :R  INFIL:S  HYDROL :R  SOM    :G         
                  CO2 347ppm  NSWIT   :1  EVAP :S  SOIL   :2  STEMP  :D         
 MANAGEMENT OPT : PLANTING:R  IRRIG   :N  FERT :D  RESIDUE:R  HARVEST:M         
                  WEATHER :M  TILLAGE :N                                        
                                                                                
*SUMMARY OF SOIL AND GENETIC INPUT PARAMETERS                                   
                                                                                
   SOIL LOWER UPPER   SAT  EXTR  INIT   ROOT   BULK     pH    NO3    NH4    ORG 
  DEPTH LIMIT LIMIT    SW    SW    SW   DIST   DENS                          C  
   cm   cm3/cm3    cm3/cm3    cm3/cm3         g/cm3         ugN/g  ugN/g     %  
------------------------------------------------------------------------------- 
  0-  5 0.160 0.252 0.376 0.092 0.252   1.00   1.69   6.60   8.90   4.51   0.45 
  5- 15 0.160 0.252 0.376 0.092 0.252   1.00   1.69   6.60   8.90   4.51   0.45 
 15- 30 0.160 0.252 0.376 0.092 0.252   1.00   1.69   6.60   8.90   4.51   0.45 
 30- 53 0.120 0.200 0.440 0.080 0.200   0.27   1.40   7.10   5.60   5.04   0.17 
 53- 77 0.120 0.200 0.440 0.080 0.200   0.27   1.40   7.10   5.60   5.04   0.17 
 77-100 0.120 0.200 0.440 0.080 0.200   0.27   1.40   7.10   5.60   5.04   0.17 
                                                                                
TOT-100  13.2  21.6  42.1   8.4  21.6  <--cm   -  kg/ha-->  100.0   72.3  39475 
SOIL ALBEDO    : 0.09      EVAPORATION LIMIT : 6.00         MIN. FACTOR  : 1.00 
RUNOFF CURVE # :76.00      DRAINAGE RATE     : 0.60         FERT. FACTOR : 1.00 
                                                                                
 Maize      CULTIVAR :CI0003-FNC3056            ECOTYPE :IB0001                 
 P1     : 233.00  P2     : 0.5000  P5     : 976.00                              
 G2     : 956.00  G3     :  7.500  PHINT  : 45.600                              


*SIMULATED CROP AND SOIL STATUS AT MAIN DEVELOPMENT STAGES

 RUN NO.     8     P08/18                  

        CROP GROWTH     BIOMASS         LEAF   CROP N     STRESS      STRESS                                           
   DATE  AGE STAGE        kg/ha    LAI   NUM  kg/ha  %   H2O  Nitr Phos1 Phos2  RSTG                                   
 ------  --- ----------   -----  -----  ----  ---  ---  ----  ----  ----  ----  ----                                   
 19 JUL    0 Start Sim        0   0.00   0.0    0  0.0  0.00  0.00  0.00  0.00     7
 18 AUG    0 Sowing           0   0.00   0.0    0  0.0  0.00  0.00  0.00  0.00     8
 19 AUG    1 Germinate        0   0.00   0.0    0  0.0  0.00  0.00  0.00  0.00     9
 23 AUG    5 Emergence       25   0.00   2.2    1  4.4  0.00  0.01  0.00  0.00     1
  3 SEP   16 End Juveni     156   0.32   8.0    5  3.3  0.00  0.00  0.00  0.00     2
  8 SEP   21 Floral Ini     422   0.73  10.4   15  3.6  0.08  0.00  0.00  0.00     3
  9 OCT   52 75% Silkin    5068   2.38  21.5   99  2.0  0.27  0.00  0.00  0.00     4
 19 OCT   62 Beg Gr Fil    7479   2.38  21.5  101  1.3  0.00  0.00  0.00  0.00     5
 28 NOV  102 End Gr Fil   15297   1.15  21.5  187  1.2  0.10  0.00  0.00  0.00     6
  1 DEC  105 Maturity     15297   1.15  21.5  187  1.2  0.61  0.00  0.00  0.00    10
  1 DEC  105 Harvest      15297   1.15  21.5  187  1.2  0.00  0.00  0.00  0.00    10


*MAIN GROWTH AND DEVELOPMENT VARIABLES

@     VARIABLE                                         SIMULATED     MEASURED
      --------                                         ---------     --------
      Anthesis day (dap)                                      52          -99
      Physiological maturity day (dap)                       105          -99
      Yield at harvest maturity (kg [dm]/ha)                8154          -99
      Number at maturity (no/m2)                            2966          -99
[...]
 WATER BALANCE  : RAINFED                                                       
 IRRIGATION     : NOT IRRIGATED                                                 
 NITROGEN BAL.  : SOIL-N & N-UPTAKE SIMULATION; NO N-FIXATION                   
 N-FERTILIZER   :      162 kg/ha IN     6 APPLICATIONS                          
 RESIDUE/MANURE : INITIAL :     0 kg/ha ;       0 kg/ha IN     0 APPLICATIONS   
 ENVIRONM. OPT. : DAYL=    0.00  SRAD=    0.00  TMAX=    0.00  TMIN=    0.00    
                  RAIN=    0.00  CO2 =    0.00  DEW =    0.00  WIND=    0.00    
 SIMULATION OPT : WATER   :Y  NITROGEN:Y  N-FIX:N  PHOSPH :N  PESTS  :N         
                  PHOTO   :C  ET      :R  INFIL:S  HYDROL :R  SOM    :G         
                  CO2 348ppm  NSWIT   :1  EVAP :S  SOIL   :2  STEMP  :D         
 MANAGEMENT OPT : PLANTING:R  IRRIG   :N  FERT :D  RESIDUE:R  HARVEST:M         
                  WEATHER :M  TILLAGE :N                                        
                                                                                
*SUMMARY OF SOIL AND GENETIC INPUT PARAMETERS                                   
                                                                                
   SOIL LOWER UPPER   SAT  EXTR  INIT   ROOT   BULK     pH    NO3    NH4    ORG 
  DEPTH LIMIT LIMIT    SW    SW    SW   DIST   DENS                          C  
   cm   cm3/cm3    cm3/cm3    cm3/cm3         g/cm3         ugN/g  ugN/g     %  
------------------------------------------------------------------------------- 
  0-  5 0.160 0.252 0.376 0.092 0.252   1.00   1.69   6.60   8.90   4.51   0.45 
  5- 15 0.160 0.252 0.376 0.092 0.252   1.00   1.69   6.60   8.90   4.51   0.45 
 15- 30 0.160 0.252 0.376 0.092 0.252   1.00   1.69   6.60   8.90   4.51   0.45 
 30- 53 0.120 0.200 0.440 0.080 0.200   0.27   1.40   7.10   5.60   5.04   0.17 
 53- 77 0.120 0.200 0.440 0.080 0.200   0.27   1.40   7.10   5.60   5.04   0.17 
 77-100 0.120 0.200 0.440 0.080 0.200   0.27   1.40   7.10   5.60   5.04   0.17 
                                                                                
TOT-100  13.2  21.6  42.1   8.4  21.6  <--cm   -  kg/ha-->  100.0   72.3  39475 
SOIL ALBEDO    : 0.09      EVAPORATION LIMIT : 6.00         MIN. FACTOR  : 1.00 
RUNOFF CURVE # :76.00      DRAINAGE RATE     : 0.60         FERT. FACTOR : 1.00 
                                                                                
 Maize      CULTIVAR :CI0003-FNC3056            ECOTYPE :IB0001                 
 P1     : 233.00  P2     : 0.5000  P5     : 976.00                              
 G2     : 956.00  G3     :  7.500  PHINT  : 45.600                              


*SIMULATED CROP AND SOIL STATUS AT MAIN DEVELOPMENT STAGES

 RUN NO.    31     P11/26                  

        CROP GROWTH     BIOMASS         LEAF   CROP N     STRESS      STRESS                                           
   DATE  AGE STAGE        kg/ha    LAI   NUM  kg/ha  %   H2O  Nitr Phos1 Phos2  RSTG                                   
 ------  --- ----------   -----  -----  ----  ---  ---  ----  ----  ----  ----  ----                                   
 26 NOV    0 Start Sim        0   0.00   0.0    0  0.0  0.00  0.00  0.00  0.00     7
 26 DEC    0 Sowing           0   0.00   0.0    0  0.0  0.00  0.00  0.00  0.00     8
 27 DEC    1 Germinate        0   0.00   0.0    0  0.0  0.00  0.00  0.00  0.00     9
 31 DEC    5 Emergence       25   0.00   2.2    1  4.4  0.00  0.01  0.00  0.00     1
 12 JAN   17 End Juveni     166   0.34   8.1    5  3.3  0.00  0.00  0.00  0.00     2
 16 JAN   21 Floral Ini     376   0.66  10.0   14  3.7  0.05  0.00  0.00  0.00     3
 14 FEB   50 75% Silkin    2383   1.14  20.8   52  2.2  0.59  0.00  0.00  0.00     4
 22 FEB   58 Beg Gr Fil    3792   1.14  20.8   52  1.4  0.00  0.00  0.00  0.00     5
 30 MAR   94 End Gr Fil    7585   0.76  20.8   94  1.2  0.35  0.00  0.00  0.00     6
  2 APR   97 Maturity      7585   0.76  20.8   94  1.2  0.88  0.00  0.00  0.00    10
  2 APR   97 Harvest       7585   0.76  20.8   94  1.2  0.00  0.00  0.00  0.00    10


*MAIN GROWTH AND DEVELOPMENT VARIABLES

@     VARIABLE                                         SIMULATED     MEASURED
      --------                                         ---------     --------
      Anthesis day (dap)                                      50          -99
      Physiological maturity day (dap)                        97          -99
      Yield at harvest maturity (kg [dm]/ha)                3936          -99
      Number at maturity (no/m2)                            2251          -99
      Unit wt at maturity (g [dm]/unit)                   0.1748          -99
      Number at maturity (no/unit)                         363.1          -99
      Tops weight at maturity (kg [dm]/ha)                  7585          -99
      By-product produced (stalk) at maturity (kg[dm]/ha    3684          -99
      Leaf area index, maximum                              1.56          -99
      Harvest index at maturity                            0.519          -99
      Grain N at maturity (kg/ha)                             71          -99
      Tops N at maturity (kg/ha)                              94          -99
      Stem N at maturity (kg/ha)                              24          -99
      Grain N at maturity (%)                                1.8          -99
      Tops weight at anthesis (kg [dm]/ha)                  2308          -99
      Tops N at anthesis (kg/ha)                              52          -99
      Leaf number per stem at maturity                     20.82          -99
      Emergence day (dap)                                      5          -99


*ENVIRONMENTAL AND STRESS FACTORS

 |-----Development Phase------|--------------------------------------Environment--------------------------------------|-----------------Stress-----------------|
                              |---------------Average--------------|-----Cumulative-----|--------Count of days--------|          (0=Min, 1=Max Stress)         |
                         Time  Temp  Temp  Temp Solar Photop                Evapo    Pot TMIN TMIN TMAX TMAX TMAX RAIN|----Water----|---Nitrogen--|-Phosphorus-|
                         Span   Max   Min  Mean   Rad  [day]    CO2   Rain  Trans     ET   <    <    >    >    >    >   Photo         Photo         Photo
                         days    邂    邂    邂 MJ/m2     hr    ppm     mm     mm     mm  0邂  2邂 30邂 32邂 34邂  0mm  synth Growth  synth Growth  synth Growth
----------------------------------------------------------------------------------------------------------------------------------------------------------------
 Emergence-End Juvenile    12  32.2  23.1  27.7  18.9   0.00  347.8   36.2   28.1   65.7    0    0   11    7    0    3  0.000  0.000  0.002  0.005  0.000  0.000
 End Juvenil-Floral Init    4  34.7  22.6  28.6  22.1   0.00  347.9    0.0    7.4   25.4    0    0    4    4    3    0  0.000  0.000  0.002  0.005  0.000  0.000
 Floral Init-End Lf Grow   29  34.8  23.6  29.2  18.9   0.00  348.0   82.5   52.6  153.4    0    0   28   26   18    6  0.458  0.599  0.000  0.000  0.000  0.000
 End Lf Grth-Beg Grn Fil    8  33.5  23.6  28.6  20.1   0.00  348.1    4.0   32.8   44.2    0    0    7    7    4    2  0.000  0.000  0.000  0.000  0.000  0.000
 Grain Filling Phase       36  34.2  23.8  29.0  20.3   7.49  348.2   91.8  116.3  207.0    0    0   32   30   21    9  0.220  0.326  0.000  0.000  0.000  0.000


 Planting to Harvest       97  34.0  23.5  28.8  19.7   3.25  348.0  219.8  249.4  540.1    0    0   89   80   47   21  0.242  0.326  0.000  0.001  0.000  0.000
----------------------------------------------------------------------------------------------------------------------------------------------------------------


*Resource Productivity
 Growing season length:  97 days 

 Precipitation during growing season       219.8 mm[rain]
   Dry Matter Productivity                  3.45 kg[DM]/m3[rain]          =   34.5 kg[DM]/ha per mm[rain]
   Yield Productivity                       1.79 kg[grain yield]/m3[rain] =   17.9 kg[yield]/ha per mm[rain]

 Evapotranspiration during growing season  249.4 mm[ET]
   Dry Matter Productivity                  3.04 kg[DM]/m3[ET]            =   30.4 kg[DM]/ha per mm[ET]
   Yield Productivity                       1.58 kg[grain yield]/m3[ET]   =   15.8 kg[yield]/ha per mm[ET]

 Transpiration during growing season       152.3 mm[EP]
   Dry Matter Productivity                  4.98 kg[DM]/m3[EP]            =   49.8 kg[DM]/ha per mm[EP]
   Yield Productivity                       2.58 kg[grain yield]/m3[EP]   =   25.8 kg[yield]/ha per mm[EP]

 N applied during growing season            162. kg[N applied]/ha
   Dry Matter Productivity                  46.8 kg[DM]/kg[N applied]
   Yield Productivity                       24.3 kg[yield]/kg[N applied]

 N uptake during growing season              104 kg[N uptake]/ha
   Dry Matter Productivity                  72.9 kg[DM]/kg[N uptake]
   Yield Productivity                       37.8 kg[yield]/kg[N uptake]

--------------------------------------------------------------------------------------------------------------

                     Maize YIELD :     3936 kg/ha    [Dry weight] 

**************************************************************************************************************

*DSSAT Cropping System Model Ver. 4.6.1.000 -release      OCT 02, 2017; 13:01:05
                                                                                
*RUN  32        : P12/31                    MZCER046 ANES1986   32              
 MODEL          : MZCER046 - Maize                                              
 EXPERIMENT     : ANES1986 MZ  Analisis a침os de bajo rendimiento Espinal       
 DATA PATH      : C:\DSSAT46\maize\                                             
 TREATMENT 32   : P12/31                    MZCER046                            
                                                                                
                                                                                
 CROP           : Maize            CULTIVAR : FNC3056          ECOTYPE :IB0001  
 STARTING DATE  : DEC  1 1986                                                   
 PLANTING DATE  : DEC 31 1986        PLANTS/m2 :  6.2     ROW SPACING :  80.cm  
 WEATHER        : CNAT   1986                                                   
 SOIL           : CCESPI2017     TEXTURE : SL    -   Suelo Espinal Calibraci    
 SOIL INITIAL C : DEPTH:100cm EXTR. H2O: 83.6mm  NO3:100.0kg/ha  NH4: 72.3kg/ha 
 WATER BALANCE  : RAINFED                                                       
 IRRIGATION     : NOT IRRIGATED                                                 
 NITROGEN BAL.  : SOIL-N & N-UPTAKE SIMULATION; NO N-FIXATION                   
 N-FERTILIZER   :      162 kg/ha IN     6 APPLICATIONS                          
 RESIDUE/MANURE : INITIAL :     0 kg/ha ;       0 kg/ha IN     0 APPLICATIONS   
 ENVIRONM. OPT. : DAYL=    0.00  SRAD=    0.00  TMAX=    0.00  TMIN=    0.00    
                  RAIN=    0.00  CO2 =    0.00  DEW =    0.00  WIND=    0.00    
 SIMULATION OPT : WATER   :Y  NITROGEN:Y  N-FIX:N  PHOSPH :N  PESTS  :N         
                  PHOTO   :C  ET      :R  INFIL:S  HYDROL :R  SOM    :G         
                  CO2 348ppm  NSWIT   :1  EVAP :S  SOIL   :2  STEMP  :D         
 MANAGEMENT OPT : PLANTING:R  IRRIG   :N  FERT :D  RESIDUE:R  HARVEST:M         
                  WEATHER :M  TILLAGE :N                                        
                                                                                
*SUMMARY OF SOIL AND GENETIC INPUT PARAMETERS                                   
                                                                                
   SOIL LOWER UPPER   SAT  EXTR  INIT   ROOT   BULK     pH    NO3    NH4    ORG 
  DEPTH LIMIT LIMIT    SW    SW    SW   DIST   DENS                          C  
   cm   cm3/cm3    cm3/cm3    cm3/cm3         g/cm3         ugN/g  ugN/g     %  
------------------------------------------------------------------------------- 
  0-  5 0.160 0.252 0.376 0.092 0.252   1.00   1.69   6.60   8.90   4.51   0.45 
  5- 15 0.160 0.252 0.376 0.092 0.252   1.00   1.69   6.60   8.90   4.51   0.45 
 15- 30 0.160 0.252 0.376 0.092 0.252   1.00   1.69   6.60   8.90   4.51   0.45 
 30- 53 0.120 0.200 0.440 0.080 0.200   0.27   1.40   7.10   5.60   5.04   0.17 
 53- 77 0.120 0.200 0.440 0.080 0.200   0.27   1.40   7.10   5.60   5.04   0.17 
 77-100 0.120 0.200 0.440 0.080 0.200   0.27   1.40   7.10   5.60   5.04   0.17 
                                                                                
TOT-100  13.2  21.6  42.1   8.4  21.6  <--cm   -  kg/ha-->  100.0   72.3  39475 
SOIL ALBEDO    : 0.09      EVAPORATION LIMIT : 6.00         MIN. FACTOR  : 1.00 
RUNOFF CURVE # :76.00      DRAINAGE RATE     : 0.60         FERT. FACTOR : 1.00 
                                                                                
 Maize      CULTIVAR :CI0003-FNC3056            ECOTYPE :IB0001                 
 P1     : 233.00  P2     : 0.5000  P5     : 976.00                              
 G2     : 956.00  G3     :  7.500  PHINT  : 45.600                              


*SIMULATED CROP AND SOIL STATUS AT MAIN DEVELOPMENT STAGES

 RUN NO.    32     P12/31                  

        CROP GROWTH     BIOMASS         LEAF   CROP N     STRESS      STRESS                                           
   DATE  AGE STAGE        kg/ha    LAI   NUM  kg/ha  %   H2O  Nitr Phos1 Phos2  RSTG                                   
 ------  --- ----------   -----  -----  ----  ---  ---  ----  ----  ----  ----  ----                                   
  1 DEC    0 Start Sim        0   0.00   0.0    0  0.0  0.00  0.00  0.00  0.00     7
 31 DEC    0 Sowing           0   0.00   0.0    0  0.0  0.00  0.00  0.00  0.00     8
  1 JAN    1 Germinate        0   0.00   0.0    0  0.0  0.00  0.00  0.00  0.00     9
  5 JAN    5 Emergence       25   0.00   2.2    1  4.4  0.00  0.01  0.00  0.00     1
 16 JAN   16 End Juveni     146   0.30   7.8    5  3.2  0.00  0.00  0.00  0.00     2
 20 JAN   20 Floral Ini     338   0.61   9.7   12  3.7  0.01  0.00  0.00  0.00     3
 17 FEB   48 75% Silkin    2849   1.38  19.9   58  2.0  0.49  0.00  0.00  0.00     4
 25 FEB   56 Beg Gr Fil    4469   1.35  19.9   59  1.3  0.18  0.00  0.00  0.00     5
  3 APR   93 End Gr Fil    8435   0.73  19.9  106  1.3  0.41  0.00  0.00  0.00     6
  5 APR   95 Maturity      8435   0.73  19.9  106  1.3  0.00  0.00  0.00  0.00    10
  5 APR   95 Harvest       8435   0.73  19.9  106  1.3  0.00  0.00  0.00  0.00    10


*MAIN GROWTH AND DEVELOPMENT VARIABLES

@     VARIABLE                                         SIMULATED     MEASURED
      --------                                         ---------     --------
      Anthesis day (dap)                                      48          -99
      Physiological maturity day (dap)                        95          -99
      Yield at harvest maturity (kg [dm]/ha)                4388          -99
      Number at maturity (no/m2)                            2573          -99
      Unit wt at maturity (g [dm]/unit)                   0.1705          -99
      Number at maturity (no/unit)                         415.1          -99
      Tops weight at maturity (kg [dm]/ha)                  8435          -99
      By-product produced (stalk) at maturity (kg[dm]/ha    4080          -99
      Leaf area index, maximum                              1.49          -99
      Harvest index at maturity                            0.520          -99
      Grain N at maturity (kg/ha)                             79          -99
      Tops N at maturity (kg/ha)                             106          -99
      Stem N at maturity (kg/ha)                              26          -99
      Grain N at maturity (%)                                1.8          -99
      Tops weight at anthesis (kg [dm]/ha)                  2660          -99
      Tops N at anthesis (kg/ha)                              57          -99
      Leaf number per stem at maturity                     19.95          -99
      Emergence day (dap)                                      5          -99


*ENVIRONMENTAL AND STRESS FACTORS

 |-----Development Phase------|--------------------------------------Environment--------------------------------------|-----------------Stress-----------------|
                              |---------------Average--------------|-----Cumulative-----|--------Count of days--------|          (0=Min, 1=Max Stress)         |
                         Time  Temp  Temp  Temp Solar Photop                Evapo    Pot TMIN TMIN TMAX TMAX TMAX RAIN|----Water----|---Nitrogen--|-Phosphorus-|
                         Span   Max   Min  Mean   Rad  [day]    CO2   Rain  Trans     ET   <    <    >    >    >    >   Photo         Photo         Photo
                         days    邂    邂    邂 MJ/m2     hr    ppm     mm     mm     mm  0邂  2邂 30邂 32邂 34邂  0mm  synth Growth  synth Growth  synth Growth
----------------------------------------------------------------------------------------------------------------------------------------------------------------
 Emergence-End Juvenile    11  33.1  23.0  28.0  19.9   0.00  347.8    0.0    9.1   63.7    0    0   11    8    3    0  0.000  0.000  0.002  0.006  0.000  0.000
 End Juvenil-Floral Init    4  35.5  22.5  29.0  20.3   0.00  348.0    0.0    6.1   24.2    0    0    4    4    4    0  0.000  0.000  0.001  0.001  0.000  0.000
 Floral Init-End Lf Grow   28  34.4  23.7  29.0  18.6   0.00  348.0   83.5   61.3  145.2    0    0   26   24   15    7  0.358  0.489  0.000  0.000  0.000  0.000
 End Lf Grth-Beg Grn Fil    8  35.0  24.1  29.6  22.0   0.00  348.1    3.3   34.6   49.0    0    0    8    8    6    2  0.057  0.137  0.000  0.000  0.000  0.000
 Grain Filling Phase       37  34.0  23.9  28.9  19.8   8.94  348.2  131.1  108.0  205.0    0    0   33   30   19    9  0.327  0.421  0.000  0.000  0.000  0.000


 Planting to Harvest       95  34.0  23.6  28.8  19.5   3.83  348.1  259.6  247.9  523.6    0    0   88   77   47   22  0.238  0.320  0.000  0.001  0.000  0.000
----------------------------------------------------------------------------------------------------------------------------------------------------------------


*Resource Productivity
 Growing season length:  95 days 

 Precipitation during growing season       259.6 mm[rain]
   Dry Matter Productivity                  3.25 kg[DM]/m3[rain]          =   32.5 kg[DM]/ha per mm[rain]
   Yield Productivity                       1.69 kg[grain yield]/m3[rain] =   16.9 kg[yield]/ha per mm[rain]

 Evapotranspiration during growing season  247.9 mm[ET]
   Dry Matter Productivity                  3.40 kg[DM]/m3[ET]            =   34.0 kg[DM]/ha per mm[ET]
   Yield Productivity                       1.77 kg[grain yield]/m3[ET]   =   17.7 kg[yield]/ha per mm[ET]

 Transpiration during growing season       158.4 mm[EP]
   Dry Matter Productivity                  5.33 kg[DM]/m3[EP]            =   53.3 kg[DM]/ha per mm[EP]
   Yield Productivity                       2.77 kg[grain yield]/m3[EP]   =   27.7 kg[yield]/ha per mm[EP]

 N applied during growing season            162. kg[N applied]/ha
   Dry Matter Productivity                  52.1 kg[DM]/kg[N applied]
   Yield Productivity                       27.1 kg[yield]/kg[N applied]

 N uptake during growing season              114 kg[N uptake]/ha
   Dry Matter Productivity                  74.0 kg[DM]/kg[N uptake]
   Yield Productivity                       38.5 kg[yield]/kg[N uptake]

--------------------------------------------------------------------------------------------------------------

                     Maize YIELD :     4388 kg/ha    [Dry weight] 

**************************************************************************************************************
