*SIMULATION OVERVIEW FILE

*DSSAT Cropping System Model Ver. 4.6.1.000 -release      OCT 24, 2017; 10:42:39
                                                                                
*RUN   1        : P04/02                    MZCER046 ANBU1997    1              
 MODEL          : MZCER046 - Maize                                              
 EXPERIMENT     : ANBU1997 MZ  Analisis a침os de bajo rendimiento Buga          
 DATA PATH      : C:\DSSAT46\maize\                                             
 TREATMENT  1   : P04/02                    MZCER046                            
                                                                                
                                                                                
 CROP           : Maize            CULTIVAR : DK7088           ECOTYPE :IB0001  
 STARTING DATE  : MAR  3 1997                                                   
 PLANTING DATE  : APR  2 1997        PLANTS/m2 :  6.2     ROW SPACING :  80.cm  
 WEATHER        : CUNI   1997                                                   
 SOIL           : CCBUGA2017     TEXTURE : CL    -   Suelo Buga MADR Fase I     
 SOIL INITIAL C : DEPTH: 90cm EXTR. H2O: 83.9mm  NO3:  0.0kg/ha  NH4:  0.0kg/ha 
 WATER BALANCE  : RAINFED                                                       
 IRRIGATION     : NOT IRRIGATED                                                 
 NITROGEN BAL.  : SOIL-N & N-UPTAKE SIMULATION; NO N-FIXATION                   
 N-FERTILIZER   :      161 kg/ha IN     5 APPLICATIONS                          
 RESIDUE/MANURE : INITIAL :     0 kg/ha ;       0 kg/ha IN     0 APPLICATIONS   
 ENVIRONM. OPT. : DAYL=    0.00  SRAD=    0.00  TMAX=    0.00  TMIN=    0.00    
                  RAIN=    0.00  CO2 =    0.00  DEW =    0.00  WIND=    0.00    
 SIMULATION OPT : WATER   :Y  NITROGEN:Y  N-FIX:N  PHOSPH :N  PESTS  :N         
                  PHOTO   :C  ET      :R  INFIL:S  HYDROL :R  SOM    :G         
                  CO2 363ppm  NSWIT   :1  EVAP :S  SOIL   :2  STEMP  :D         
 MANAGEMENT OPT : PLANTING:R  IRRIG   :N  FERT :D  RESIDUE:R  HARVEST:M         
                  WEATHER :M  TILLAGE :N                                        
                                                                                
*SUMMARY OF SOIL AND GENETIC INPUT PARAMETERS                                   
                                                                                
   SOIL LOWER UPPER   SAT  EXTR  INIT   ROOT   BULK     pH    NO3    NH4    ORG 
  DEPTH LIMIT LIMIT    SW    SW    SW   DIST   DENS                          C  
   cm   cm3/cm3    cm3/cm3    cm3/cm3         g/cm3         ugN/g  ugN/g     %  
------------------------------------------------------------------------------- 
  0-  5 0.215 0.331 0.341 0.116 0.331   1.00   1.68   6.70   0.00   0.00   0.75 
  5- 15 0.215 0.331 0.341 0.116 0.331   1.00   1.68   6.70   0.00   0.00   0.75 
 15- 25 0.215 0.331 0.341 0.116 0.331   1.00   1.68   6.70   0.00   0.00   0.75 
 25- 35 0.181 0.291 0.364 0.110 0.291   0.50   1.61   7.20   0.00   0.00   0.53 
 35- 45 0.181 0.291 0.364 0.110 0.291   0.50   1.61   7.20   0.00   0.00   0.53 
 45- 67 0.096 0.169 0.404 0.073 0.169   0.27   1.51   7.00   0.00   0.00   0.05 
 67- 90 0.096 0.169 0.404 0.073 0.169   0.27   1.51   7.00   0.00   0.00   0.05 
                                                                                
TOT- 90  13.3  21.7  34.0   8.4  21.7  <--cm   -  kg/ha-->    0.0    0.0  51964 
SOIL ALBEDO    : 0.09      EVAPORATION LIMIT : 6.00         MIN. FACTOR  : 1.00 
RUNOFF CURVE # :76.00      DRAINAGE RATE     : 0.60         FERT. FACTOR : 1.00 
                                                                                
 Maize      CULTIVAR :CI0004-DK7088             ECOTYPE :IB0001                 
 P1     : 229.00  P2     : 0.3000  P5     : 971.00                              
 G2     : 957.00  G3     :  7.500  PHINT  : 45.000                              


*SIMULATED CROP AND SOIL STATUS AT MAIN DEVELOPMENT STAGES

 RUN NO.     1     P04/02                  

        CROP GROWTH     BIOMASS         LEAF   CROP N     STRESS      STRESS                                           
   DATE  AGE STAGE        kg/ha    LAI   NUM  kg/ha  %   H2O  Nitr Phos1 Phos2  RSTG                                   
 ------  --- ----------   -----  -----  ----  ---  ---  ----  ----  ----  ----  ----                                   
  3 MAR    0 Start Sim        0   0.00   0.0    0  0.0  0.00  0.00  0.00  0.00     7
  2 APR    0 Sowing           0   0.00   0.0    0  0.0  0.00  0.00  0.00  0.00     8
  3 APR    1 Germinate        0   0.00   0.0    0  0.0  0.00  0.00  0.00  0.00     9
  8 APR    6 Emergence       25   0.00   2.1    1  4.4  0.00  0.01  0.00  0.00     1
 20 APR   18 End Juveni     103   0.22   7.5    4  3.7  0.00  0.00  0.00  0.00     2
 26 APR   24 Floral Ini     226   0.43   9.7    8  3.6  0.00  0.00  0.00  0.00     3
 31 MAY   59 75% Silkin    6047   3.38  20.2  122  2.0  0.00  0.00  0.00  0.00     4
 11 JUN   70 Beg Gr Fil    7984   3.20  20.2  122  1.5  0.08  0.00  0.00  0.00     5
 25 JUL  114 End Gr Fil   13075   1.22  20.2  165  1.3  0.46  0.00  0.00  0.00     6
 28 JUL  117 Maturity     13075   1.22  20.2  165  1.3  0.90  0.00  0.00  0.00    10
 28 JUL  117 Harvest      13075   1.22  20.2  165  1.3  0.00  0.00  0.00  0.00    10


*MAIN GROWTH AND DEVELOPMENT VARIABLES

@     VARIABLE                                         SIMULATED     MEASURED
      --------                                         ---------     --------
      Anthesis day (dap)                                      59          -99
      Physiological maturity day (dap)                       117          -99
      Yield at harvest maturity (kg [dm]/ha)                6275          -99
      Number at maturity (no/m2)                            2426          -99
      Unit wt at maturity (g [dm]/unit)                   0.2587          -99
      Number at maturity (no/unit)                         391.2          -99
      Tops weight at maturity (kg [dm]/ha)                 13075          -99
      By-product produced (stalk) at maturity (kg[dm]/ha    6856          -99
      Leaf area index, maximum                              3.54          -99
      Harvest index at maturity                            0.480          -99
      Grain N at maturity (kg/ha)                            111          -99
      Tops N at maturity (kg/ha)                             165          -99
      Stem N at maturity (kg/ha)                              54          -99
      Grain N at maturity (%)                                1.8          -99
      Tops weight at anthesis (kg [dm]/ha)                  5903          -99
      Tops N at anthesis (kg/ha)                             121          -99
      Leaf number per stem at maturity                     20.25          -99
      Emergence day (dap)                                      6          -99


*ENVIRONMENTAL AND STRESS FACTORS

 |-----Development Phase------|--------------------------------------Environment--------------------------------------|-----------------Stress-----------------|
                              |---------------Average--------------|-----Cumulative-----|--------Count of days--------|          (0=Min, 1=Max Stress)         |
                         Time  Temp  Temp  Temp Solar Photop                Evapo    Pot TMIN TMIN TMAX TMAX TMAX RAIN|----Water----|---Nitrogen--|-Phosphorus-|
                         Span   Max   Min  Mean   Rad  [day]    CO2   Rain  Trans     ET   <    <    >    >    >    >   Photo         Photo         Photo
                         days    邂    邂    邂 MJ/m2     hr    ppm     mm     mm     mm  0邂  2邂 30邂 32邂 34邂  0mm  synth Growth  synth Growth  synth Growth
----------------------------------------------------------------------------------------------------------------------------------------------------------------
 Emergence-End Juvenile    12  31.5  19.8  25.7  15.4  21.85  363.4   50.0   27.6   52.2    0    0   10    5    0    5  0.000  0.000  0.002  0.004  0.000  0.000
 End Juvenil-Floral Init    6  27.6  19.1  23.4  13.0  24.00  363.4   36.0   20.7   20.8    0    0    1    0    0    4  0.000  0.000  0.000  0.001  0.000  0.000
 Floral Init-End Lf Grow   35  30.5  18.9  24.7  15.4  24.00  363.5  110.0  121.6  133.8    0    0   21    7    0   11  0.000  0.003  0.002  0.005  0.000  0.000
 End Lf Grth-Beg Grn Fil   11  28.0  18.8  23.4  13.1  24.00  363.5  117.0   32.3   33.6    0    0    2    0    0    6  0.029  0.081  0.000  0.000  0.000  0.000
 Grain Filling Phase       44  31.6  18.2  24.9  17.3  24.00  363.7   38.0  110.0  185.6    0    0   33   12    6    8  0.391  0.442  0.000  0.000  0.000  0.000


 Planting to Harvest      117  30.7  18.7  24.7  15.8  23.41  363.5  360.0  320.5  464.9    0    0   74   29    7   35  0.171  0.197  0.001  0.002  0.000  0.000
----------------------------------------------------------------------------------------------------------------------------------------------------------------


*Resource Productivity
 Growing season length: 117 days 

 Precipitation during growing season       360.0 mm[rain]
   Dry Matter Productivity                  3.63 kg[DM]/m3[rain]          =   36.3 kg[DM]/ha per mm[rain]
   Yield Productivity                       1.74 kg[grain yield]/m3[rain] =   17.4 kg[yield]/ha per mm[rain]

 Evapotranspiration during growing season  320.5 mm[ET]
   Dry Matter Productivity                  4.08 kg[DM]/m3[ET]            =   40.8 kg[DM]/ha per mm[ET]
   Yield Productivity                       1.96 kg[grain yield]/m3[ET]   =   19.6 kg[yield]/ha per mm[ET]

 Transpiration during growing season       212.0 mm[EP]
   Dry Matter Productivity                  6.17 kg[DM]/m3[EP]            =   61.7 kg[DM]/ha per mm[EP]
   Yield Productivity                       2.96 kg[grain yield]/m3[EP]   =   29.6 kg[yield]/ha per mm[EP]

 N applied during growing season            161. kg[N applied]/ha
   Dry Matter Productivity                  81.2 kg[DM]/kg[N applied]
   Yield Productivity                       39.0 kg[yield]/kg[N applied]

 N uptake during growing season              180 kg[N uptake]/ha
   Dry Matter Productivity                  72.6 kg[DM]/kg[N uptake]
   Yield Productivity                       34.9 kg[yield]/kg[N uptake]

--------------------------------------------------------------------------------------------------------------

                     Maize YIELD :     6275 kg/ha    [Dry weight] 

**************************************************************************************************************

*DSSAT Cropping System Model Ver. 4.6.1.000 -release      OCT 24, 2017; 10:42:39
                                                                                
*RUN   2        : P04/07                    MZCER046 ANBU1997    2              
 MODEL          : MZCER046 - Maize                                              
 EXPERIMENT     : ANBU1997 MZ  Analisis a침os de bajo rendimiento Buga          
 DATA PATH      : C:\DSSAT46\maize\                                             
 TREATMENT  2   : P04/07                    MZCER046                            
                                                                                
                                                                                
 CROP           : Maize            CULTIVAR : DK7088           ECOTYPE :IB0001  
 STARTING DATE  : MAR  8 1997                                                   
 PLANTING DATE  : APR  7 1997        PLANTS/m2 :  6.2     ROW SPACING :  80.cm  
 WEATHER        : CUNI   1997                                                   
 SOIL           : CCBUGA2017     TEXTURE : CL    -   Suelo Buga MADR Fase I     
 SOIL INITIAL C : DEPTH: 90cm EXTR. H2O: 83.9mm  NO3:  0.0kg/ha  NH4:  0.0kg/ha 
 WATER BALANCE  : RAINFED                                                       
 IRRIGATION     : NOT IRRIGATED                                                 
 NITROGEN BAL.  : SOIL-N & N-UPTAKE SIMULATION; NO N-FIXATION                   
 N-FERTILIZER   :      161 kg/ha IN     5 APPLICATIONS                          
 RESIDUE/MANURE : INITIAL :     0 kg/ha ;       0 kg/ha IN     0 APPLICATIONS   
 ENVIRONM. OPT. : DAYL=    0.00  SRAD=    0.00  TMAX=    0.00  TMIN=    0.00    
                  RAIN=    0.00  CO2 =    0.00  DEW =    0.00  WIND=    0.00    
 SIMULATION OPT : WATER   :Y  NITROGEN:Y  N-FIX:N  PHOSPH :N  PESTS  :N         
                  PHOTO   :C  ET      :R  INFIL:S  HYDROL :R  SOM    :G         
                  CO2 363ppm  NSWIT   :1  EVAP :S  SOIL   :2  STEMP  :D         
 MANAGEMENT OPT : PLANTING:R  IRRIG   :N  FERT :D  RESIDUE:R  HARVEST:M         
                  WEATHER :M  TILLAGE :N                                        
                                                                                
*SUMMARY OF SOIL AND GENETIC INPUT PARAMETERS                                   
                                                                                
   SOIL LOWER UPPER   SAT  EXTR  INIT   ROOT   BULK     pH    NO3    NH4    ORG 
  DEPTH LIMIT LIMIT    SW    SW    SW   DIST   DENS                          C  
   cm   cm3/cm3    cm3/cm3    cm3/cm3         g/cm3         ugN/g  ugN/g     %  
------------------------------------------------------------------------------- 
  0-  5 0.215 0.331 0.341 0.116 0.331   1.00   1.68   6.70   0.00   0.00   0.75 
  5- 15 0.215 0.331 0.341 0.116 0.331   1.00   1.68   6.70   0.00   0.00   0.75 
 15- 25 0.215 0.331 0.341 0.116 0.331   1.00   1.68   6.70   0.00   0.00   0.75 
 25- 35 0.181 0.291 0.364 0.110 0.291   0.50   1.61   7.20   0.00   0.00   0.53 
 35- 45 0.181 0.291 0.364 0.110 0.291   0.50   1.61   7.20   0.00   0.00   0.53 
 45- 67 0.096 0.169 0.404 0.073 0.169   0.27   1.51   7.00   0.00   0.00   0.05 
 67- 90 0.096 0.169 0.404 0.073 0.169   0.27   1.51   7.00   0.00   0.00   0.05 
                                                                                
TOT- 90  13.3  21.7  34.0   8.4  21.7  <--cm   -  kg/ha-->    0.0    0.0  51964 
SOIL ALBEDO    : 0.09      EVAPORATION LIMIT : 6.00         MIN. FACTOR  : 1.00 
RUNOFF CURVE # :76.00      DRAINAGE RATE     : 0.60         FERT. FACTOR : 1.00 
                                                                                
 Maize      CULTIVAR :CI0004-DK7088             ECOTYPE :IB0001                 
 P1     : 229.00  P2     : 0.3000  P5     : 971.00                              
 G2     : 957.00  G3     :  7.500  PHINT  : 45.000                              


*SIMULATED CROP AND SOIL STATUS AT MAIN DEVELOPMENT STAGES

 RUN NO.     2     P04/07                  

        CROP GROWTH     BIOMASS         LEAF   CROP N     STRESS      STRESS                                           
   DATE  AGE STAGE        kg/ha    LAI   NUM  kg/ha  %   H2O  Nitr Phos1 Phos2  RSTG                                   
 ------  --- ----------   -----  -----  ----  ---  ---  ----  ----  ----  ----  ----                                   
  8 MAR    0 Start Sim        0   0.00   0.0    0  0.0  0.00  0.00  0.00  0.00     7
  7 APR    0 Sowing           0   0.00   0.0    0  0.0  0.00  0.00  0.00  0.00     8
  8 APR    1 Germinate        0   0.00   0.0    0  0.0  0.00  0.00  0.00  0.00     9
 13 APR    6 Emergence       25   0.00   2.1    1  4.4  0.00  0.01  0.00  0.00     1
 26 APR   19 End Juveni      74   0.16   7.7    3  3.5  0.00  0.00  0.00  0.00     2
  3 MAY   26 Floral Ini     336   0.60  10.4   12  3.5  0.00  0.00  0.00  0.00     3
 10 JUN   64 75% Silkin    6195   3.60  21.9  126  2.0  0.03  0.00  0.00  0.00     4
 21 JUN   75 Beg Gr Fil    8441   3.40  21.9  127  1.5  0.00  0.00  0.00  0.00     5
  4 AUG  119 End Gr Fil   13381   1.17  21.9  159  1.2  0.52  0.00  0.00  0.00     6
  6 AUG  121 Maturity     13381   1.17  21.9  159  1.2  0.35  0.00  0.00  0.00    10
  6 AUG  121 Harvest      13381   1.17  21.9  159  1.2  0.00  0.00  0.00  0.00    10


*MAIN GROWTH AND DEVELOPMENT VARIABLES

@     VARIABLE                                         SIMULATED     MEASURED
      --------                                         ---------     --------
      Anthesis day (dap)                                      64          -99
      Physiological maturity day (dap)                       121          -99
      Yield at harvest maturity (kg [dm]/ha)                6360          -99
      Number at maturity (no/m2)                            2805          -99
      Unit wt at maturity (g [dm]/unit)                   0.2267          -99
      Number at maturity (no/unit)                         452.4          -99
      Tops weight at maturity (kg [dm]/ha)                 13381          -99
      By-product produced (stalk) at maturity (kg[dm]/ha    7083          -99
      Leaf area index, maximum                              3.73          -99
      Harvest index at maturity                            0.475          -99
      Grain N at maturity (kg/ha)                            113          -99
      Tops N at maturity (kg/ha)                             159          -99
      Stem N at maturity (kg/ha)                              46          -99
      Grain N at maturity (%)                                1.8          -99
      Tops weight at anthesis (kg [dm]/ha)                  5938          -99
      Tops N at anthesis (kg/ha)                             125          -99
      Leaf number per stem at maturity                     21.91          -99
      Emergence day (dap)                                      6          -99


*ENVIRONMENTAL AND STRESS FACTORS

 |-----Development Phase------|--------------------------------------Environment--------------------------------------|-----------------Stress-----------------|
                              |---------------Average--------------|-----Cumulative-----|--------Count of days--------|          (0=Min, 1=Max Stress)         |
                         Time  Temp  Temp  Temp Solar Photop                Evapo    Pot TMIN TMIN TMAX TMAX TMAX RAIN|----Water----|---Nitrogen--|-Phosphorus-|
                         Span   Max   Min  Mean   Rad  [day]    CO2   Rain  Trans     ET   <    <    >    >    >    >   Photo         Photo         Photo
                         days    邂    邂    邂 MJ/m2     hr    ppm     mm     mm     mm  0邂  2邂 30邂 32邂 34邂  0mm  synth Growth  synth Growth  synth Growth
----------------------------------------------------------------------------------------------------------------------------------------------------------------
 Emergence-End Juvenile    13  29.8  19.6  24.7  14.5  23.76  363.4   79.0   41.6   52.5    0    0    8    3    0    7  0.000  0.000  0.002  0.004  0.000  0.000
 End Juvenil-Floral Init    7  31.1  18.7  24.9  17.5  24.00  363.4   26.0   22.7   33.4    0    0    4    2    0    1  0.000  0.000  0.001  0.002  0.000  0.000
 Floral Init-End Lf Grow   38  29.7  18.9  24.3  14.4  24.00  363.5  201.0  121.7  133.0    0    0   19    5    0   16  0.005  0.025  0.001  0.003  0.000  0.000
 End Lf Grth-Beg Grn Fil   11  29.7  18.6  24.2  14.7  24.00  363.6   10.0   37.7   37.8    0    0    4    0    0    2  0.000  0.000  0.000  0.000  0.000  0.000
 Grain Filling Phase       44  32.1  18.1  25.1  17.8  24.00  363.7   78.0  105.0  193.3    0    0   39   17    7    9  0.463  0.517  0.000  0.000  0.000  0.000


 Planting to Harvest      121  30.8  18.6  24.7  16.0  23.74  363.6  401.0  343.2  486.1    0    0   79   31    8   37  0.170  0.199  0.001  0.002  0.000  0.000
----------------------------------------------------------------------------------------------------------------------------------------------------------------


*Resource Productivity
 Growing season length: 121 days 

 Precipitation during growing season       401.0 mm[rain]
   Dry Matter Productivity                  3.34 kg[DM]/m3[rain]          =   33.4 kg[DM]/ha per mm[rain]
   Yield Productivity                       1.59 kg[grain yield]/m3[rain] =   15.9 kg[yield]/ha per mm[rain]

 Evapotranspiration during growing season  343.2 mm[ET]
   Dry Matter Productivity                  3.90 kg[DM]/m3[ET]            =   39.0 kg[DM]/ha per mm[ET]
   Yield Productivity                       1.85 kg[grain yield]/m3[ET]   =   18.5 kg[yield]/ha per mm[ET]

 Transpiration during growing season       221.4 mm[EP]
   Dry Matter Productivity                  6.04 kg[DM]/m3[EP]            =   60.4 kg[DM]/ha per mm[EP]
   Yield Productivity                       2.87 kg[grain yield]/m3[EP]   =   28.7 kg[yield]/ha per mm[EP]

 N applied during growing season            161. kg[N applied]/ha
   Dry Matter Productivity                  83.1 kg[DM]/kg[N applied]
   Yield Productivity                       39.5 kg[yield]/kg[N applied]

 N uptake during growing season              174 kg[N uptake]/ha
   Dry Matter Productivity                  76.9 kg[DM]/kg[N uptake]
   Yield Productivity                       36.6 kg[yield]/kg[N uptake]

--------------------------------------------------------------------------------------------------------------

                     Maize YIELD :     6360 kg/ha    [Dry weight] 

**************************************************************************************************************

*DSSAT Cropping System Model Ver. 4.6.1.000 -release      OCT 24, 2017; 10:42:39
                                                                                
*RUN   3        : P04/12                    MZCER046 ANBU1997    3              
 MODEL          : MZCER046 - Maize                                              
 EXPERIMENT     : ANBU1997 MZ  Analisis a침os de bajo rendimiento Buga          
 DATA PATH      : C:\DSSAT46\maize\                                             
 TREATMENT  3   : P04/12                    MZCER046                            
                                                                                
                                                                                
 CROP           : Maize            CULTIVAR : DK7088           ECOTYPE :IB0001  
 STARTING DATE  : MAR 13 1997                                                   
 PLANTING DATE  : APR 12 1997        PLANTS/m2 :  6.2     ROW SPACING :  80.cm  
 WEATHER        : CUNI   1997                                                   
 SOIL           : CCBUGA2017     TEXTURE : CL    -   Suelo Buga MADR Fase I     
 SOIL INITIAL C : DEPTH: 90cm EXTR. H2O: 83.9mm  NO3:  0.0kg/ha  NH4:  0.0kg/ha 
 WATER BALANCE  : RAINFED                                                       
 IRRIGATION     : NOT IRRIGATED                                                 
 NITROGEN BAL.  : SOIL-N & N-UPTAKE SIMULATION; NO N-FIXATION                   
 N-FERTILIZER   :      161 kg/ha IN     5 APPLICATIONS                          
 RESIDUE/MANURE : INITIAL :     0 kg/ha ;       0 kg/ha IN     0 APPLICATIONS   
 ENVIRONM. OPT. : DAYL=    0.00  SRAD=    0.00  TMAX=    0.00  TMIN=    0.00    
                  RAIN=    0.00  CO2 =    0.00  DEW =    0.00  WIND=    0.00    
 SIMULATION OPT : WATER   :Y  NITROGEN:Y  N-FIX:N  PHOSPH :N  PESTS  :N         
                  PHOTO   :C  ET      :R  INFIL:S  HYDROL :R  SOM    :G         
                  CO2 363ppm  NSWIT   :1  EVAP :S  SOIL   :2  STEMP  :D         
 MANAGEMENT OPT : PLANTING:R  IRRIG   :N  FERT :D  RESIDUE:R  HARVEST:M         
                  WEATHER :M  TILLAGE :N                                        
                                                                                
*SUMMARY OF SOIL AND GENETIC INPUT PARAMETERS                                   
                                                                                
   SOIL LOWER UPPER   SAT  EXTR  INIT   ROOT   BULK     pH    NO3    NH4    ORG 
  DEPTH LIMIT LIMIT    SW    SW    SW   DIST   DENS                          C  
   cm   cm3/cm3    cm3/cm3    cm3/cm3         g/cm3         ugN/g  ugN/g     %  
------------------------------------------------------------------------------- 
  0-  5 0.215 0.331 0.341 0.116 0.331   1.00   1.68   6.70   0.00   0.00   0.75 
  5- 15 0.215 0.331 0.341 0.116 0.331   1.00   1.68   6.70   0.00   0.00   0.75 
 15- 25 0.215 0.331 0.341 0.116 0.331   1.00   1.68   6.70   0.00   0.00   0.75 
 25- 35 0.181 0.291 0.364 0.110 0.291   0.50   1.61   7.20   0.00   0.00   0.53 
 35- 45 0.181 0.291 0.364 0.110 0.291   0.50   1.61   7.20   0.00   0.00   0.53 
 45- 67 0.096 0.169 0.404 0.073 0.169   0.27   1.51   7.00   0.00   0.00   0.05 
 67- 90 0.096 0.169 0.404 0.073 0.169   0.27   1.51   7.00   0.00   0.00   0.05 
                                                                                
TOT- 90  13.3  21.7  34.0   8.4  21.7  <--cm   -  kg/ha-->    0.0    0.0  51964 
SOIL ALBEDO    : 0.09      EVAPORATION LIMIT : 6.00         MIN. FACTOR  : 1.00 
RUNOFF CURVE # :76.00      DRAINAGE RATE     : 0.60         FERT. FACTOR : 1.00 
                                                                                
 Maize      CULTIVAR :CI0004-DK7088             ECOTYPE :IB0001                 
 P1     : 229.00  P2     : 0.3000  P5     : 971.00                              
 G2     : 957.00  G3     :  7.500  PHINT  : 45.000                              


*SIMULATED CROP AND SOIL STATUS AT MAIN DEVELOPMENT STAGES

 RUN NO.     3     P04/12                  

        CROP GROWTH     BIOMASS         LEAF   CROP N     STRESS      STRESS                                           
   DATE  AGE STAGE        kg/ha    LAI   NUM  kg/ha  %   H2O  Nitr Phos1 Phos2  RSTG                                   
 ------  --- ----------   -----  -----  ----  ---  ---  ----  ----  ----  ----  ----                                   
 13 MAR    0 Start Sim        0   0.00   0.0    0  0.0  0.00  0.00  0.00  0.00     7
 12 APR    0 Sowing           0   0.00   0.0    0  0.0  0.00  0.00  0.00  0.00     8
 13 APR    1 Germinate        0   0.00   0.0    0  0.0  0.00  0.00  0.00  0.00     9
 18 APR    6 Emergence       25   0.00   2.1    1  4.4  0.00  0.01  0.00  0.00     1
  1 MAY   19 End Juveni      92   0.20   7.6    3  3.2  0.00  0.00  0.00  0.00     2
  8 MAY   26 Floral Ini     376   0.66  10.4   14  3.6  0.00  0.00  0.00  0.00     3
 15 JUN   64 75% Silkin    6007   3.50  21.9  117  2.0  0.04  0.00  0.00  0.00     4
 26 JUN   75 Beg Gr Fil    8225   3.30  21.9  117  1.4  0.00  0.00  0.00  0.00     5
  8 AUG  118 End Gr Fil   12803   1.10  21.9  144  1.1  0.58  0.00  0.00  0.00     6
 11 AUG  121 Maturity     12803   1.10  21.9  144  1.1  0.76  0.00  0.00  0.00    10
 11 AUG  121 Harvest      12803   1.10  21.9  144  1.1  0.00  0.00  0.00  0.00    10


*MAIN GROWTH AND DEVELOPMENT VARIABLES

@     VARIABLE                                         SIMULATED     MEASURED
      --------                                         ---------     --------
      Anthesis day (dap)                                      64          -99
      Physiological maturity day (dap)                       121          -99
      Yield at harvest maturity (kg [dm]/ha)                5641          -99
      Number at maturity (no/m2)                            2805          -99
      Unit wt at maturity (g [dm]/unit)                   0.2011          -99
      Number at maturity (no/unit)                         452.5          -99
      Tops weight at maturity (kg [dm]/ha)                 12803          -99
      By-product produced (stalk) at maturity (kg[dm]/ha    7222          -99
      Leaf area index, maximum                              3.55          -99
      Harvest index at maturity                            0.441          -99
      Grain N at maturity (kg/ha)                            101          -99
      Tops N at maturity (kg/ha)                             144          -99
      Stem N at maturity (kg/ha)                              43          -99
      Grain N at maturity (%)                                1.8          -99
      Tops weight at anthesis (kg [dm]/ha)                  5739          -99
      Tops N at anthesis (kg/ha)                             116          -99
      Leaf number per stem at maturity                     21.91          -99
      Emergence day (dap)                                      6          -99


*ENVIRONMENTAL AND STRESS FACTORS

 |-----Development Phase------|--------------------------------------Environment--------------------------------------|-----------------Stress-----------------|
                              |---------------Average--------------|-----Cumulative-----|--------Count of days--------|          (0=Min, 1=Max Stress)         |
                         Time  Temp  Temp  Temp Solar Photop                Evapo    Pot TMIN TMIN TMAX TMAX TMAX RAIN|----Water----|---Nitrogen--|-Phosphorus-|
                         Span   Max   Min  Mean   Rad  [day]    CO2   Rain  Trans     ET   <    <    >    >    >    >   Photo         Photo         Photo
                         days    邂    邂    邂 MJ/m2     hr    ppm     mm     mm     mm  0邂  2邂 30邂 32邂 34邂  0mm  synth Growth  synth Growth  synth Growth
----------------------------------------------------------------------------------------------------------------------------------------------------------------
 Emergence-End Juvenile    13  29.7  19.3  24.5  14.8  24.00  363.4   71.0   41.7   53.5    0    0    5    3    0    7  0.000  0.000  0.002  0.004  0.000  0.000
 End Juvenil-Floral Init    7  31.3  18.2  24.8  16.4  24.00  363.4   14.0   12.4   31.0    0    0    6    2    0    2  0.000  0.000  0.001  0.001  0.000  0.000
 Floral Init-End Lf Grow   38  29.5  18.9  24.2  14.2  24.00  363.5  189.0  123.3  131.3    0    0   16    3    0   15  0.019  0.037  0.000  0.000  0.000  0.000
 End Lf Grth-Beg Grn Fil   11  30.5  18.5  24.5  14.8  24.00  363.7   13.0   38.4   38.5    0    0    6    1    0    3  0.000  0.000  0.000  0.000  0.000  0.000
 Grain Filling Phase       43  32.4  18.1  25.3  18.2  24.00  363.7   73.0   97.9  195.4    0    0   40   20    9    7  0.498  0.566  0.000  0.000  0.000  0.000


 Planting to Harvest      121  30.9  18.6  24.8  16.1  23.95  363.6  394.0  336.6  493.3    0    0   82   34   10   35  0.198  0.231  0.000  0.000  0.000  0.000
----------------------------------------------------------------------------------------------------------------------------------------------------------------


*Resource Productivity
 Growing season length: 121 days 

 Precipitation during growing season       394.0 mm[rain]
   Dry Matter Productivity                  3.25 kg[DM]/m3[rain]          =   32.5 kg[DM]/ha per mm[rain]
   Yield Productivity                       1.43 kg[grain yield]/m3[rain] =   14.3 kg[yield]/ha per mm[rain]

 Evapotranspiration during growing season  336.6 mm[ET]
   Dry Matter Productivity                  3.80 kg[DM]/m3[ET]            =   38.0 kg[DM]/ha per mm[ET]
   Yield Productivity                       1.68 kg[grain yield]/m3[ET]   =   16.8 kg[yield]/ha per mm[ET]

 Transpiration during growing season       206.2 mm[EP]
   Dry Matter Productivity                  6.21 kg[DM]/m3[EP]            =   62.1 kg[DM]/ha per mm[EP]
   Yield Productivity                       2.74 kg[grain yield]/m3[EP]   =   27.4 kg[yield]/ha per mm[EP]

 N applied during growing season            161. kg[N applied]/ha
   Dry Matter Productivity                  79.5 kg[DM]/kg[N applied]
   Yield Productivity                       35.0 kg[yield]/kg[N applied]

 N uptake during growing season              158 kg[N uptake]/ha
   Dry Matter Productivity                  81.0 kg[DM]/kg[N uptake]
   Yield Productivity                       35.7 kg[yield]/kg[N uptake]

--------------------------------------------------------------------------------------------------------------

                     Maize YIELD :     5641 kg/ha    [Dry weight] 

**************************************************************************************************************

*DSSAT Cropping System Model Ver. 4.6.1.000 -release      OCT 24, 2017; 10:42:39
                                                                                
*RUN   4        : P04/17                    MZCER046 ANBU1997    4              
 MODEL          : MZCER046 - Maize                                              
 EXPERIMENT     : ANBU1997 MZ  Analisis a침os de bajo rendimiento Buga          
 DATA PATH      : C:\DSSAT46\maize\                                             
 TREATMENT  4   : P04/17                    MZCER046                            
                                                                                
                                                                                
 CROP           : Maize            CULTIVAR : DK7088           ECOTYPE :IB0001  
 STARTING DATE  : MAR 18 1997                                                   
 PLANTING DATE  : APR 17 1997        PLANTS/m2 :  6.2     ROW SPACING :  80.cm  
 WEATHER        : CUNI   1997                                                   
 SOIL           : CCBUGA2017     TEXTURE : CL    -   Suelo Buga MADR Fase I     
 SOIL INITIAL C : DEPTH: 90cm EXTR. H2O: 83.9mm  NO3:  0.0kg/ha  NH4:  0.0kg/ha 
 WATER BALANCE  : RAINFED                                                       
 IRRIGATION     : NOT IRRIGATED                                                 
 NITROGEN BAL.  : SOIL-N & N-UPTAKE SIMULATION; NO N-FIXATION                   
 N-FERTILIZER   :      161 kg/ha IN     5 APPLICATIONS                          
 RESIDUE/MANURE : INITIAL :     0 kg/ha ;       0 kg/ha IN     0 APPLICATIONS   
 ENVIRONM. OPT. : DAYL=    0.00  SRAD=    0.00  TMAX=    0.00  TMIN=    0.00    
                  RAIN=    0.00  CO2 =    0.00  DEW =    0.00  WIND=    0.00    
 SIMULATION OPT : WATER   :Y  NITROGEN:Y  N-FIX:N  PHOSPH :N  PESTS  :N         
                  PHOTO   :C  ET      :R  INFIL:S  HYDROL :R  SOM    :G         
                  CO2 363ppm  NSWIT   :1  EVAP :S  SOIL   :2  STEMP  :D         
 MANAGEMENT OPT : PLANTING:R  IRRIG   :N  FERT :D  RESIDUE:R  HARVEST:M         
                  WEATHER :M  TILLAGE :N                                        
                                                                                
*SUMMARY OF SOIL AND GENETIC INPUT PARAMETERS                                   
                                                                                
   SOIL LOWER UPPER   SAT  EXTR  INIT   ROOT   BULK     pH    NO3    NH4    ORG 
  DEPTH LIMIT LIMIT    SW    SW    SW   DIST   DENS                          C  
   cm   cm3/cm3    cm3/cm3    cm3/cm3         g/cm3         ugN/g  ugN/g     %  
------------------------------------------------------------------------------- 
  0-  5 0.215 0.331 0.341 0.116 0.331   1.00   1.68   6.70   0.00   0.00   0.75 
  5- 15 0.215 0.331 0.341 0.116 0.331   1.00   1.68   6.70   0.00   0.00   0.75 
 15- 25 0.215 0.331 0.341 0.116 0.331   1.00   1.68   6.70   0.00   0.00   0.75 
 25- 35 0.181 0.291 0.364 0.110 0.291   0.50   1.61   7.20   0.00   0.00   0.53 
 35- 45 0.181 0.291 0.364 0.110 0.291   0.50   1.61   7.20   0.00   0.00   0.53 
 45- 67 0.096 0.169 0.404 0.073 0.169   0.27   1.51   7.00   0.00   0.00   0.05 
 67- 90 0.096 0.169 0.404 0.073 0.169   0.27   1.51   7.00   0.00   0.00   0.05 
                                                                                
TOT- 90  13.3  21.7  34.0   8.4  21.7  <--cm   -  kg/ha-->    0.0    0.0  51964 
SOIL ALBEDO    : 0.09      EVAPORATION LIMIT : 6.00         MIN. FACTOR  : 1.00 
RUNOFF CURVE # :76.00      DRAINAGE RATE     : 0.60         FERT. FACTOR : 1.00 
                                                                                
 Maize      CULTIVAR :CI0004-DK7088             ECOTYPE :IB0001                 
 P1     : 229.00  P2     : 0.3000  P5     : 971.00                              
 G2     : 957.00  G3     :  7.500  PHINT  : 45.000                              


*SIMULATED CROP AND SOIL STATUS AT MAIN DEVELOPMENT STAGES

 RUN NO.     4     P04/17                  

        CROP GROWTH     BIOMASS         LEAF   CROP N     STRESS      STRESS                                           
   DATE  AGE STAGE        kg/ha    LAI   NUM  kg/ha  %   H2O  Nitr Phos1 Phos2  RSTG                                   
 ------  --- ----------   -----  -----  ----  ---  ---  ----  ----  ----  ----  ----                                   
 18 MAR    0 Start Sim        0   0.00   0.0    0  0.0  0.00  0.00  0.00  0.00     7
 17 APR    0 Sowing           0   0.00   0.0    0  0.0  0.00  0.00  0.00  0.00     8
 18 APR    1 Germinate        0   0.00   0.0    0  0.0  0.00  0.00  0.00  0.00     9
 23 APR    6 Emergence       25   0.00   2.1    1  4.4  0.00  0.01  0.00  0.00     1
  6 MAY   19 End Juveni     116   0.25   7.7    4  3.3  0.00  0.00  0.00  0.00     2
 13 MAY   26 Floral Ini     348   0.62  10.4   13  3.6  0.00  0.00  0.00  0.00     3
 20 JUN   64 75% Silkin    6300   3.52  21.5  125  2.0  0.05  0.00  0.00  0.00     4
 30 JUN   74 Beg Gr Fil    8170   3.24  21.5  125  1.5  0.21  0.00  0.00  0.00     5
 13 AUG  118 End Gr Fil   11925   0.89  21.5  139  1.2  0.66  0.00  0.00  0.00     6
 15 AUG  120 Maturity     11925   0.89  21.5  139  1.2  0.90  0.00  0.00  0.00    10
 15 AUG  120 Harvest      11925   0.89  21.5  139  1.2  0.00  0.00  0.00  0.00    10


*MAIN GROWTH AND DEVELOPMENT VARIABLES

@     VARIABLE                                         SIMULATED     MEASURED
      --------                                         ---------     --------
      Anthesis day (dap)                                      64          -99
      Physiological maturity day (dap)                       120          -99
      Yield at harvest maturity (kg [dm]/ha)                5171          -99
      Number at maturity (no/m2)                            2660          -99
      Unit wt at maturity (g [dm]/unit)                   0.1944          -99
      Number at maturity (no/unit)                         429.1          -99
      Tops weight at maturity (kg [dm]/ha)                 11925          -99
      By-product produced (stalk) at maturity (kg[dm]/ha    6813          -99
      Leaf area index, maximum                              3.55          -99
      Harvest index at maturity                            0.434          -99
      Grain N at maturity (kg/ha)                             94          -99
      Tops N at maturity (kg/ha)                             139          -99
      Stem N at maturity (kg/ha)                              46          -99
      Grain N at maturity (%)                                1.8          -99
      Tops weight at anthesis (kg [dm]/ha)                  6021          -99
      Tops N at anthesis (kg/ha)                             122          -99
      Leaf number per stem at maturity                     21.52          -99
      Emergence day (dap)                                      6          -99


*ENVIRONMENTAL AND STRESS FACTORS

 |-----Development Phase------|--------------------------------------Environment--------------------------------------|-----------------Stress-----------------|
                              |---------------Average--------------|-----Cumulative-----|--------Count of days--------|          (0=Min, 1=Max Stress)         |
                         Time  Temp  Temp  Temp Solar Photop                Evapo    Pot TMIN TMIN TMAX TMAX TMAX RAIN|----Water----|---Nitrogen--|-Phosphorus-|
                         Span   Max   Min  Mean   Rad  [day]    CO2   Rain  Trans     ET   <    <    >    >    >    >   Photo         Photo         Photo
                         days    邂    邂    邂 MJ/m2     hr    ppm     mm     mm     mm  0邂  2邂 30邂 32邂 34邂  0mm  synth Growth  synth Growth  synth Growth
----------------------------------------------------------------------------------------------------------------------------------------------------------------
 Emergence-End Juvenile    13  30.5  18.5  24.5  17.3  24.00  363.4   35.0   36.7   62.4    0    0    7    4    0    3  0.000  0.000  0.002  0.006  0.000  0.000
 End Juvenil-Floral Init    7  30.4  18.9  24.7  14.9  24.00  363.4   46.0   19.3   28.2    0    0    5    1    0    4  0.000  0.000  0.000  0.001  0.000  0.000
 Floral Init-End Lf Grow   38  29.4  18.9  24.2  13.9  24.00  363.5  163.0  120.1  128.6    0    0   15    2    0   13  0.029  0.045  0.000  0.000  0.000  0.000
 End Lf Grth-Beg Grn Fil   10  30.9  18.2  24.5  15.8  24.00  363.7   22.0   33.3   37.5    0    0    7    1    0    4  0.105  0.214  0.000  0.000  0.000  0.000
 Grain Filling Phase       44  32.6  18.0  25.3  18.4  24.00  363.8   58.0   85.6  203.3    0    0   42   24   10    6  0.577  0.642  0.000  0.000  0.000  0.000


 Planting to Harvest      120  30.9  18.6  24.8  16.1  24.00  363.6  362.2  308.9  488.5    0    0   81   34   10   36  0.243  0.282  0.000  0.001  0.000  0.000
----------------------------------------------------------------------------------------------------------------------------------------------------------------


*Resource Productivity
 Growing season length: 120 days 

 Precipitation during growing season       362.2 mm[rain]
   Dry Matter Productivity                  3.29 kg[DM]/m3[rain]          =   32.9 kg[DM]/ha per mm[rain]
   Yield Productivity                       1.43 kg[grain yield]/m3[rain] =   14.3 kg[yield]/ha per mm[rain]

 Evapotranspiration during growing season  308.9 mm[ET]
   Dry Matter Productivity                  3.86 kg[DM]/m3[ET]            =   38.6 kg[DM]/ha per mm[ET]
   Yield Productivity                       1.67 kg[grain yield]/m3[ET]   =   16.7 kg[yield]/ha per mm[ET]

 Transpiration during growing season       184.0 mm[EP]
   Dry Matter Productivity                  6.48 kg[DM]/m3[EP]            =   64.8 kg[DM]/ha per mm[EP]
   Yield Productivity                       2.81 kg[grain yield]/m3[EP]   =   28.1 kg[yield]/ha per mm[EP]

 N applied during growing season            161. kg[N applied]/ha
   Dry Matter Productivity                  74.1 kg[DM]/kg[N applied]
   Yield Productivity                       32.1 kg[yield]/kg[N applied]

 N uptake during growing season              150 kg[N uptake]/ha
   Dry Matter Productivity                  79.5 kg[DM]/kg[N uptake]
   Yield Productivity                       34.5 kg[yield]/kg[N uptake]

--------------------------------------------------------------------------------------------------------------

                     Maize YIELD :     5171 kg/ha    [Dry weight] 

**************************************************************************************************************

*DSSAT Cropping System Model Ver. 4.6.1.000 -release      OCT 24, 2017; 10:42:39
                                                                                
*RUN   5        : P04/22                    MZCER046 ANBU1997    5              
 MODEL          : MZCER046 - Maize                                              
 EXPERIMENT     : ANBU1997 MZ  Analisis a침os de bajo rendimiento Buga          
 DATA PATH      : C:\DSSAT46\maize\                                             
 TREATMENT  5   : P04/22                    MZCER046                            
                                                                                
                                                                                
 CROP           : Maize            CULTIVAR : DK7088           ECOTYPE :IB0001  
 STARTING DATE  : MAR 23 1997                                                   
 PLANTING DATE  : APR 22 1997        PLANTS/m2 :  6.2     ROW SPACING :  80.cm  
 WEATHER        : CUNI   1997                                                   
 SOIL           : CCBUGA2017     TEXTURE : CL    -   Suelo Buga MADR Fase I     
 SOIL INITIAL C : DEPTH: 90cm EXTR. H2O: 83.9mm  NO3:  0.0kg/ha  NH4:  0.0kg/ha 
 WATER BALANCE  : RAINFED                                                       
 IRRIGATION     : NOT IRRIGATED                                                 
 NITROGEN BAL.  : SOIL-N & N-UPTAKE SIMULATION; NO N-FIXATION                   
 N-FERTILIZER   :      161 kg/ha IN     5 APPLICATIONS                          
 RESIDUE/MANURE : INITIAL :     0 kg/ha ;       0 kg/ha IN     0 APPLICATIONS   
 ENVIRONM. OPT. : DAYL=    0.00  SRAD=    0.00  TMAX=    0.00  TMIN=    0.00    
                  RAIN=    0.00  CO2 =    0.00  DEW =    0.00  WIND=    0.00    
 SIMULATION OPT : WATER   :Y  NITROGEN:Y  N-FIX:N  PHOSPH :N  PESTS  :N         
                  PHOTO   :C  ET      :R  INFIL:S  HYDROL :R  SOM    :G         
                  CO2 363ppm  NSWIT   :1  EVAP :S  SOIL   :2  STEMP  :D         
 MANAGEMENT OPT : PLANTING:R  IRRIG   :N  FERT :D  RESIDUE:R  HARVEST:M         
                  WEATHER :M  TILLAGE :N                                        
                                                                                
*SUMMARY OF SOIL AND GENETIC INPUT PARAMETERS                                   
                                                                                
   SOIL LOWER UPPER   SAT  EXTR  INIT   ROOT   BULK     pH    NO3    NH4    ORG 
  DEPTH LIMIT LIMIT    SW    SW    SW   DIST   DENS                          C  
   cm   cm3/cm3    cm3/cm3    cm3/cm3         g/cm3         ugN/g  ugN/g     %  
------------------------------------------------------------------------------- 
  0-  5 0.215 0.331 0.341 0.116 0.331   1.00   1.68   6.70   0.00   0.00   0.75 
  5- 15 0.215 0.331 0.341 0.116 0.331   1.00   1.68   6.70   0.00   0.00   0.75 
 15- 25 0.215 0.331 0.341 0.116 0.331   1.00   1.68   6.70   0.00   0.00   0.75 
 25- 35 0.181 0.291 0.364 0.110 0.291   0.50   1.61   7.20   0.00   0.00   0.53 
 35- 45 0.181 0.291 0.364 0.110 0.291   0.50   1.61   7.20   0.00   0.00   0.53 
 45- 67 0.096 0.169 0.404 0.073 0.169   0.27   1.51   7.00   0.00   0.00   0.05 
 67- 90 0.096 0.169 0.404 0.073 0.169   0.27   1.51   7.00   0.00   0.00   0.05 
                                                                                
TOT- 90  13.3  21.7  34.0   8.4  21.7  <--cm   -  kg/ha-->    0.0    0.0  51964 
SOIL ALBEDO    : 0.09      EVAPORATION LIMIT : 6.00         MIN. FACTOR  : 1.00 
RUNOFF CURVE # :76.00      DRAINAGE RATE     : 0.60         FERT. FACTOR : 1.00 
                                                                                
 Maize      CULTIVAR :CI0004-DK7088             ECOTYPE :IB0001                 
 P1     : 229.00  P2     : 0.3000  P5     : 971.00                              
 G2     : 957.00  G3     :  7.500  PHINT  : 45.000                              


*SIMULATED CROP AND SOIL STATUS AT MAIN DEVELOPMENT STAGES

 RUN NO.     5     P04/22                  

        CROP GROWTH     BIOMASS         LEAF   CROP N     STRESS      STRESS                                           
   DATE  AGE STAGE        kg/ha    LAI   NUM  kg/ha  %   H2O  Nitr Phos1 Phos2  RSTG                                   
 ------  --- ----------   -----  -----  ----  ---  ---  ----  ----  ----  ----  ----                                   
 23 MAR    0 Start Sim        0   0.00   0.0    0  0.0  0.00  0.00  0.00  0.00     7
 22 APR    0 Sowing           0   0.00   0.0    0  0.0  0.00  0.00  0.00  0.00     8
 23 APR    1 Germinate        0   0.00   0.0    0  0.0  0.00  0.00  0.00  0.00     9
 28 APR    6 Emergence       25   0.00   2.1    1  4.4  0.00  0.01  0.00  0.00     1
 11 MAY   19 End Juveni     102   0.22   7.8    4  3.7  0.00  0.00  0.00  0.00     2
 18 MAY   26 Floral Ini     369   0.65  10.5   13  3.6  0.00  0.00  0.00  0.00     3
 25 JUN   64 75% Silkin    6898   3.76  21.9  137  2.0  0.00  0.00  0.00  0.00     4
  5 JUL   74 Beg Gr Fil    8979   3.37  21.9  137  1.5  0.30  0.00  0.00  0.00     5
 17 AUG  117 End Gr Fil   12180   0.83  21.9  139  1.1  0.72  0.00  0.00  0.00     6
 20 AUG  120 Maturity     12180   0.83  21.9  139  1.1  0.92  0.00  0.00  0.00    10
 20 AUG  120 Harvest      12180   0.83  21.9  139  1.1  0.00  0.00  0.00  0.00    10


*MAIN GROWTH AND DEVELOPMENT VARIABLES

@     VARIABLE                                         SIMULATED     MEASURED
      --------                                         ---------     --------
      Anthesis day (dap)                                      64          -99
      Physiological maturity day (dap)                       120          -99
      Yield at harvest maturity (kg [dm]/ha)                4675          -99
      Number at maturity (no/m2)                            2903          -99
      Unit wt at maturity (g [dm]/unit)                   0.1611          -99
      Number at maturity (no/unit)                         468.2          -99
      Tops weight at maturity (kg [dm]/ha)                 12180          -99
      By-product produced (stalk) at maturity (kg[dm]/ha    7566          -99
      Leaf area index, maximum                              3.92          -99
      Harvest index at maturity                            0.384          -99
      Grain N at maturity (kg/ha)                             85          -99
      Tops N at maturity (kg/ha)                             139          -99
      Stem N at maturity (kg/ha)                              53          -99
      Grain N at maturity (%)                                1.8          -99
      Tops weight at anthesis (kg [dm]/ha)                  6675          -99
      Tops N at anthesis (kg/ha)                             135          -99
      Leaf number per stem at maturity                     21.95          -99
      Emergence day (dap)                                      6          -99


*ENVIRONMENTAL AND STRESS FACTORS

 |-----Development Phase------|--------------------------------------Environment--------------------------------------|-----------------Stress-----------------|
                              |---------------Average--------------|-----Cumulative-----|--------Count of days--------|          (0=Min, 1=Max Stress)         |
                         Time  Temp  Temp  Temp Solar Photop                Evapo    Pot TMIN TMIN TMAX TMAX TMAX RAIN|----Water----|---Nitrogen--|-Phosphorus-|
                         Span   Max   Min  Mean   Rad  [day]    CO2   Rain  Trans     ET   <    <    >    >    >    >   Photo         Photo         Photo
                         days    邂    邂    邂 MJ/m2     hr    ppm     mm     mm     mm  0邂  2邂 30邂 32邂 34邂  0mm  synth Growth  synth Growth  synth Growth
----------------------------------------------------------------------------------------------------------------------------------------------------------------
 Emergence-End Juvenile    13  31.6  18.6  25.1  17.3  24.00  363.4   47.0   25.9   63.0    0    0   11    5    0    4  0.000  0.000  0.002  0.005  0.000  0.000
 End Juvenil-Floral Init    7  29.5  18.5  24.0  15.6  24.00  363.5    7.0   24.3   29.2    0    0    3    0    0    3  0.000  0.000  0.001  0.001  0.000  0.000
 Floral Init-End Lf Grow   38  29.5  18.9  24.2  13.9  24.00  363.6  161.0  119.3  127.5    0    0   15    2    0   12  0.000  0.003  0.002  0.004  0.000  0.000
 End Lf Grth-Beg Grn Fil   10  30.9  17.6  24.3  17.8  24.00  363.7   21.0   35.9   41.8    0    0    8    1    0    4  0.136  0.224  0.000  0.000  0.000  0.000
 Grain Filling Phase       43  32.9  18.2  25.6  18.2  24.00  363.8   55.2   71.5  197.6    0    0   42   27   10    6  0.654  0.715  0.000  0.000  0.000  0.000


 Planting to Harvest      120  31.1  18.5  24.8  16.4  24.00  363.6  332.2  303.1  497.4    0    0   83   37   11   32  0.267  0.299  0.001  0.002  0.000  0.000
----------------------------------------------------------------------------------------------------------------------------------------------------------------


*Resource Productivity
 Growing season length: 120 days 

 Precipitation during growing season       332.2 mm[rain]
   Dry Matter Productivity                  3.67 kg[DM]/m3[rain]          =   36.7 kg[DM]/ha per mm[rain]
   Yield Productivity                       1.41 kg[grain yield]/m3[rain] =   14.1 kg[yield]/ha per mm[rain]

 Evapotranspiration during growing season  303.1 mm[ET]
   Dry Matter Productivity                  4.02 kg[DM]/m3[ET]            =   40.2 kg[DM]/ha per mm[ET]
   Yield Productivity                       1.54 kg[grain yield]/m3[ET]   =   15.4 kg[yield]/ha per mm[ET]

 Transpiration during growing season       179.8 mm[EP]
   Dry Matter Productivity                  6.77 kg[DM]/m3[EP]            =   67.7 kg[DM]/ha per mm[EP]
   Yield Productivity                       2.60 kg[grain yield]/m3[EP]   =   26.0 kg[yield]/ha per mm[EP]

 N applied during growing season            161. kg[N applied]/ha
   Dry Matter Productivity                  75.6 kg[DM]/kg[N applied]
   Yield Productivity                       29.0 kg[yield]/kg[N applied]

 N uptake during growing season              148 kg[N uptake]/ha
   Dry Matter Productivity                  82.3 kg[DM]/kg[N uptake]
   Yield Productivity                       31.6 kg[yield]/kg[N uptake]

--------------------------------------------------------------------------------------------------------------

                     Maize YIELD :     4675 kg/ha    [Dry weight] 

**************************************************************************************************************

*DSSAT Cropping System Model Ver. 4.6.1.000 -release      OCT 24, 2017; 10:42:39
                                                                                
*RUN   6        : P04/27                    MZCER046 ANBU1997    6              
 MODEL          : MZCER046 - Maize                                              
 EXPERIMENT     : ANBU1997 MZ  Analisis a침os de bajo rendimiento Buga          
 DATA PATH      : C:\DSSAT46\maize\                                             
 TREATMENT  6   : P04/27                    MZCER046                            
                                                                                
                                                                                
 CROP           : Maize            CULTIVAR : DK7088           ECOTYPE :IB0001  
 STARTING DATE  : MAR 28 1997                                                   
 PLANTING DATE  : APR 27 1997        PLANTS/m2 :  6.2     ROW SPACING :  80.cm  
 WEATHER        : CUNI   1997                                                   
 SOIL           : CCBUGA2017     TEXTURE : CL    -   Suelo Buga MADR Fase I     
 SOIL INITIAL C : DEPTH: 90cm EXTR. H2O: 83.9mm  NO3:  0.0kg/ha  NH4:  0.0kg/ha 
 WATER BALANCE  : RAINFED                                                       
 IRRIGATION     : NOT IRRIGATED                                                 
 NITROGEN BAL.  : SOIL-N & N-UPTAKE SIMULATION; NO N-FIXATION                   
 N-FERTILIZER   :      161 kg/ha IN     5 APPLICATIONS                          
 RESIDUE/MANURE : INITIAL :     0 kg/ha ;       0 kg/ha IN     0 APPLICATIONS   
 ENVIRONM. OPT. : DAYL=    0.00  SRAD=    0.00  TMAX=    0.00  TMIN=    0.00    
                  RAIN=    0.00  CO2 =    0.00  DEW =    0.00  WIND=    0.00    
 SIMULATION OPT : WATER   :Y  NITROGEN:Y  N-FIX:N  PHOSPH :N  PESTS  :N         
                  PHOTO   :C  ET      :R  INFIL:S  HYDROL :R  SOM    :G         
                  CO2 363ppm  NSWIT   :1  EVAP :S  SOIL   :2  STEMP  :D         
 MANAGEMENT OPT : PLANTING:R  IRRIG   :N  FERT :D  RESIDUE:R  HARVEST:M         
                  WEATHER :M  TILLAGE :N                                        
                                                                                
*SUMMARY OF SOIL AND GENETIC INPUT PARAMETERS                                   
                                                                                
   SOIL LOWER UPPER   SAT  EXTR  INIT   ROOT   BULK     pH    NO3    NH4    ORG 
  DEPTH LIMIT LIMIT    SW    SW    SW   DIST   DENS                          C  
   cm   cm3/cm3    cm3/cm3    cm3/cm3         g/cm3         ugN/g  ugN/g     %  
------------------------------------------------------------------------------- 
  0-  5 0.215 0.331 0.341 0.116 0.331   1.00   1.68   6.70   0.00   0.00   0.75 
  5- 15 0.215 0.331 0.341 0.116 0.331   1.00   1.68   6.70   0.00   0.00   0.75 
 15- 25 0.215 0.331 0.341 0.116 0.331   1.00   1.68   6.70   0.00   0.00   0.75 
 25- 35 0.181 0.291 0.364 0.110 0.291   0.50   1.61   7.20   0.00   0.00   0.53 
 35- 45 0.181 0.291 0.364 0.110 0.291   0.50   1.61   7.20   0.00   0.00   0.53 
 45- 67 0.096 0.169 0.404 0.073 0.169   0.27   1.51   7.00   0.00   0.00   0.05 
 67- 90 0.096 0.169 0.404 0.073 0.169   0.27   1.51   7.00   0.00   0.00   0.05 
                                                                                
TOT- 90  13.3  21.7  34.0   8.4  21.7  <--cm   -  kg/ha-->    0.0    0.0  51964 
SOIL ALBEDO    : 0.09      EVAPORATION LIMIT : 6.00         MIN. FACTOR  : 1.00 
RUNOFF CURVE # :76.00      DRAINAGE RATE     : 0.60         FERT. FACTOR : 1.00 
                                                                                
 Maize      CULTIVAR :CI0004-DK7088             ECOTYPE :IB0001                 
 P1     : 229.00  P2     : 0.3000  P5     : 971.00                              
 G2     : 957.00  G3     :  7.500  PHINT  : 45.000                              


*SIMULATED CROP AND SOIL STATUS AT MAIN DEVELOPMENT STAGES

 RUN NO.     6     P04/27                  

        CROP GROWTH     BIOMASS         LEAF   CROP N     STRESS      STRESS                                           
   DATE  AGE STAGE        kg/ha    LAI   NUM  kg/ha  %   H2O  Nitr Phos1 Phos2  RSTG                                   
 ------  --- ----------   -----  -----  ----  ---  ---  ----  ----  ----  ----  ----                                   
 28 MAR    0 Start Sim        0   0.00   0.0    0  0.0  0.00  0.00  0.00  0.00     7
 27 APR    0 Sowing           0   0.00   0.0    0  0.0  0.00  0.00  0.00  0.00     8
 28 APR    1 Germinate        0   0.00   0.0    0  0.0  0.00  0.00  0.00  0.00     9
  3 MAY    6 Emergence       25   0.00   2.1    1  4.4  0.00  0.01  0.00  0.00     1
 16 MAY   19 End Juveni      96   0.21   7.7    3  3.3  0.00  0.00  0.00  0.00     2
 23 MAY   26 Floral Ini     373   0.66  10.4   13  3.6  0.00  0.00  0.00  0.00     3
  1 JUL   65 75% Silkin    6672   3.57  21.8  133  2.0  0.04  0.00  0.00  0.00     4
 11 JUL   75 Beg Gr Fil    7646   2.67  21.8  134  1.7  0.68  0.00  0.00  0.00     5
 23 AUG  118 End Gr Fil   10244   0.62  21.8  134  1.3  0.74  0.00  0.00  0.00     6
 25 AUG  120 Maturity     10244   0.62  21.8  134  1.3  0.94  0.00  0.00  0.00    10
 25 AUG  120 Harvest      10244   0.62  21.8  134  1.3  0.00  0.00  0.00  0.00    10


*MAIN GROWTH AND DEVELOPMENT VARIABLES

@     VARIABLE                                         SIMULATED     MEASURED
      --------                                         ---------     --------
      Anthesis day (dap)                                      65          -99
      Physiological maturity day (dap)                       120          -99
      Yield at harvest maturity (kg [dm]/ha)                3967          -99
      Number at maturity (no/m2)                            1976          -99
      Unit wt at maturity (g [dm]/unit)                   0.2007          -99
      Number at maturity (no/unit)                         318.8          -99
      Tops weight at maturity (kg [dm]/ha)                 10244          -99
      By-product produced (stalk) at maturity (kg[dm]/ha    6339          -99
      Leaf area index, maximum                              3.66          -99
      Harvest index at maturity                            0.387          -99
      Grain N at maturity (kg/ha)                             73          -99
      Tops N at maturity (kg/ha)                             134          -99
      Stem N at maturity (kg/ha)                              61          -99
      Grain N at maturity (%)                                1.8          -99
      Tops weight at anthesis (kg [dm]/ha)                  6344          -99
      Tops N at anthesis (kg/ha)                             131          -99
      Leaf number per stem at maturity                     21.84          -99
      Emergence day (dap)                                      6          -99


*ENVIRONMENTAL AND STRESS FACTORS

 |-----Development Phase------|--------------------------------------Environment--------------------------------------|-----------------Stress-----------------|
                              |---------------Average--------------|-----Cumulative-----|--------Count of days--------|          (0=Min, 1=Max Stress)         |
                         Time  Temp  Temp  Temp Solar Photop                Evapo    Pot TMIN TMIN TMAX TMAX TMAX RAIN|----Water----|---Nitrogen--|-Phosphorus-|
                         Span   Max   Min  Mean   Rad  [day]    CO2   Rain  Trans     ET   <    <    >    >    >    >   Photo         Photo         Photo
                         days    邂    邂    邂 MJ/m2     hr    ppm     mm     mm     mm  0邂  2邂 30邂 32邂 34邂  0mm  synth Growth  synth Growth  synth Growth
----------------------------------------------------------------------------------------------------------------------------------------------------------------
 Emergence-End Juvenile    13  30.6  18.7  24.6  15.7  24.00  363.4   54.0   35.2   56.9    0    0    8    3    0    7  0.000  0.000  0.002  0.004  0.000  0.000
 End Juvenil-Floral Init    7  31.2  18.8  25.0  15.1  24.00  363.5   12.0   13.2   28.7    0    0    6    1    0    1  0.000  0.000  0.001  0.002  0.000  0.000
 Floral Init-End Lf Grow   39  29.5  18.8  24.1  14.2  24.00  363.6  170.0  124.7  133.8    0    0   16    2    0   15  0.013  0.037  0.000  0.001  0.000  0.000
 End Lf Grth-Beg Grn Fil   10  31.4  18.0  24.7  18.1  24.00  363.7    0.0   25.4   43.2    0    0    8    2    0    0  0.482  0.588  0.000  0.000  0.000  0.000
 Grain Filling Phase       43  33.1  18.1  25.6  18.6  24.00  363.8   55.2   65.9  205.3    0    0   43   30   13    6  0.683  0.735  0.000  0.000  0.000  0.000


 Planting to Harvest      120  31.3  18.4  24.9  16.6  24.00  363.7  291.2  279.7  507.3    0    0   87   42   14   29  0.304  0.340  0.000  0.001  0.000  0.000
----------------------------------------------------------------------------------------------------------------------------------------------------------------


*Resource Productivity
 Growing season length: 120 days 

 Precipitation during growing season       291.2 mm[rain]
   Dry Matter Productivity                  3.52 kg[DM]/m3[rain]          =   35.2 kg[DM]/ha per mm[rain]
   Yield Productivity                       1.36 kg[grain yield]/m3[rain] =   13.6 kg[yield]/ha per mm[rain]

 Evapotranspiration during growing season  279.7 mm[ET]
   Dry Matter Productivity                  3.66 kg[DM]/m3[ET]            =   36.6 kg[DM]/ha per mm[ET]
   Yield Productivity                       1.42 kg[grain yield]/m3[ET]   =   14.2 kg[yield]/ha per mm[ET]

 Transpiration during growing season       162.2 mm[EP]
   Dry Matter Productivity                  6.32 kg[DM]/m3[EP]            =   63.2 kg[DM]/ha per mm[EP]
   Yield Productivity                       2.45 kg[grain yield]/m3[EP]   =   24.5 kg[yield]/ha per mm[EP]

 N applied during growing season            161. kg[N applied]/ha
   Dry Matter Productivity                  63.6 kg[DM]/kg[N applied]
   Yield Productivity                       24.6 kg[yield]/kg[N applied]

 N uptake during growing season              145 kg[N uptake]/ha
   Dry Matter Productivity                  70.7 kg[DM]/kg[N uptake]
   Yield Productivity                       27.4 kg[yield]/kg[N uptake]

--------------------------------------------------------------------------------------------------------------

                     Maize YIELD :     3967 kg/ha    [Dry weight] 

**************************************************************************************************************

*DSSAT Cropping System Model Ver. 4.6.1.000 -release      OCT 24, 2017; 10:42:40
                                                                                
*RUN   7        : P05/02                    MZCER046 ANBU1997    7              
 MODEL          : MZCER046 - Maize                                              
 EXPERIMENT     : ANBU1997 MZ  Analisis a침os de bajo rendimiento Buga          
 DATA PATH      : C:\DSSAT46\maize\                                             
 TREATMENT  7   : P05/02                    MZCER046                            
                                                                                
                                                                                
 CROP           : Maize            CULTIVAR : DK7088           ECOTYPE :IB0001  
 STARTING DATE  : APR  2 1997                                                   
 PLANTING DATE  : MAY  2 1997        PLANTS/m2 :  6.2     ROW SPACING :  80.cm  
 WEATHER        : CUNI   1997                                                   
 SOIL           : CCBUGA2017     TEXTURE : CL    -   Suelo Buga MADR Fase I     
 SOIL INITIAL C : DEPTH: 90cm EXTR. H2O: 83.9mm  NO3:  0.0kg/ha  NH4:  0.0kg/ha 
 WATER BALANCE  : RAINFED                                                       
 IRRIGATION     : NOT IRRIGATED                                                 
 NITROGEN BAL.  : SOIL-N & N-UPTAKE SIMULATION; NO N-FIXATION                   
 N-FERTILIZER   :      161 kg/ha IN     5 APPLICATIONS                          
 RESIDUE/MANURE : INITIAL :     0 kg/ha ;       0 kg/ha IN     0 APPLICATIONS   
 ENVIRONM. OPT. : DAYL=    0.00  SRAD=    0.00  TMAX=    0.00  TMIN=    0.00    
                  RAIN=    0.00  CO2 =    0.00  DEW =    0.00  WIND=    0.00    
 SIMULATION OPT : WATER   :Y  NITROGEN:Y  N-FIX:N  PHOSPH :N  PESTS  :N         
                  PHOTO   :C  ET      :R  INFIL:S  HYDROL :R  SOM    :G         
                  CO2 363ppm  NSWIT   :1  EVAP :S  SOIL   :2  STEMP  :D         
 MANAGEMENT OPT : PLANTING:R  IRRIG   :N  FERT :D  RESIDUE:R  HARVEST:M         
                  WEATHER :M  TILLAGE :N                                        
                                                                                
*SUMMARY OF SOIL AND GENETIC INPUT PARAMETERS                                   
                                                                                
   SOIL LOWER UPPER   SAT  EXTR  INIT   ROOT   BULK     pH    NO3    NH4    ORG 
  DEPTH LIMIT LIMIT    SW    SW    SW   DIST   DENS                          C  
   cm   cm3/cm3    cm3/cm3    cm3/cm3         g/cm3         ugN/g  ugN/g     %  
------------------------------------------------------------------------------- 
  0-  5 0.215 0.331 0.341 0.116 0.331   1.00   1.68   6.70   0.00   0.00   0.75 
  5- 15 0.215 0.331 0.341 0.116 0.331   1.00   1.68   6.70   0.00   0.00   0.75 
 15- 25 0.215 0.331 0.341 0.116 0.331   1.00   1.68   6.70   0.00   0.00   0.75 
 25- 35 0.181 0.291 0.364 0.110 0.291   0.50   1.61   7.20   0.00   0.00   0.53 
 35- 45 0.181 0.291 0.364 0.110 0.291   0.50   1.61   7.20   0.00   0.00   0.53 
 45- 67 0.096 0.169 0.404 0.073 0.169   0.27   1.51   7.00   0.00   0.00   0.05 
 67- 90 0.096 0.169 0.404 0.073 0.169   0.27   1.51   7.00   0.00   0.00   0.05 
                                                                                
TOT- 90  13.3  21.7  34.0   8.4  21.7  <--cm   -  kg/ha-->    0.0    0.0  51964 
SOIL ALBEDO    : 0.09      EVAPORATION LIMIT : 6.00         MIN. FACTOR  : 1.00 
RUNOFF CURVE # :76.00      DRAINAGE RATE     : 0.60         FERT. FACTOR : 1.00 
                                                                                
 Maize      CULTIVAR :CI0004-DK7088             ECOTYPE :IB0001                 
 P1     : 229.00  P2     : 0.3000  P5     : 971.00                              
 G2     : 957.00  G3     :  7.500  PHINT  : 45.000                              


*SIMULATED CROP AND SOIL STATUS AT MAIN DEVELOPMENT STAGES

 RUN NO.     7     P05/02                  

        CROP GROWTH     BIOMASS         LEAF   CROP N     STRESS      STRESS                                           
   DATE  AGE STAGE        kg/ha    LAI   NUM  kg/ha  %   H2O  Nitr Phos1 Phos2  RSTG                                   
 ------  --- ----------   -----  -----  ----  ---  ---  ----  ----  ----  ----  ----                                   
  2 APR    0 Start Sim        0   0.00   0.0    0  0.0  0.00  0.00  0.00  0.00     7
  2 MAY    0 Sowing           0   0.00   0.0    0  0.0  0.00  0.00  0.00  0.00     8
  3 MAY    1 Germinate        0   0.00   0.0    0  0.0  0.00  0.00  0.00  0.00     9
  8 MAY    6 Emergence       25   0.00   2.1    1  4.4  0.00  0.01  0.00  0.00     1
 21 MAY   19 End Juveni     111   0.24   7.7    4  3.5  0.00  0.00  0.00  0.00     2
 28 MAY   26 Floral Ini     325   0.58  10.3   12  3.6  0.00  0.00  0.00  0.00     3
  5 JUL   64 75% Silkin    5493   2.77  21.4  115  2.1  0.16  0.00  0.00  0.00     4
 15 JUL   74 Beg Gr Fil    5841   1.93  21.4  115  2.0  0.81  0.00  0.00  0.00     5
 27 AUG  117 End Gr Fil    7703   0.49  21.4  115  1.5  0.71  0.00  0.00  0.00     6
 29 AUG  119 Maturity      7703   0.49  21.4  115  1.5  0.94  0.00  0.00  0.00    10
 29 AUG  119 Harvest       7703   0.49  21.4  115  1.5  0.00  0.00  0.00  0.00    10


*MAIN GROWTH AND DEVELOPMENT VARIABLES

@     VARIABLE                                         SIMULATED     MEASURED
      --------                                         ---------     --------
      Anthesis day (dap)                                      64          -99
      Physiological maturity day (dap)                       119          -99
      Yield at harvest maturity (kg [dm]/ha)                2256          -99
      Number at maturity (no/m2)                            1090          -99
      Unit wt at maturity (g [dm]/unit)                   0.2071          -99
      Number at maturity (no/unit)                         175.7          -99
      Tops weight at maturity (kg [dm]/ha)                  7703          -99
      By-product produced (stalk) at maturity (kg[dm]/ha    5502          -99
      Leaf area index, maximum                              3.00          -99
      Harvest index at maturity                            0.293          -99
      Grain N at maturity (kg/ha)                             41          -99
      Tops N at maturity (kg/ha)                             115          -99
      Stem N at maturity (kg/ha)                              73          -99
      Grain N at maturity (%)                                1.8          -99
      Tops weight at anthesis (kg [dm]/ha)                  5409          -99
      Tops N at anthesis (kg/ha)                             112          -99
      Leaf number per stem at maturity                     21.38          -99
      Emergence day (dap)                                      6          -99


*ENVIRONMENTAL AND STRESS FACTORS

 |-----Development Phase------|--------------------------------------Environment--------------------------------------|-----------------Stress-----------------|
                              |---------------Average--------------|-----Cumulative-----|--------Count of days--------|          (0=Min, 1=Max Stress)         |
                         Time  Temp  Temp  Temp Solar Photop                Evapo    Pot TMIN TMIN TMAX TMAX TMAX RAIN|----Water----|---Nitrogen--|-Phosphorus-|
                         Span   Max   Min  Mean   Rad  [day]    CO2   Rain  Trans     ET   <    <    >    >    >    >   Photo         Photo         Photo
                         days    邂    邂    邂 MJ/m2     hr    ppm     mm     mm     mm  0邂  2邂 30邂 32邂 34邂  0mm  synth Growth  synth Growth  synth Growth
----------------------------------------------------------------------------------------------------------------------------------------------------------------
 Emergence-End Juvenile    13  30.5  19.0  24.7  15.3  24.00  363.5   40.0   36.8   55.4    0    0    9    2    0    5  0.000  0.000  0.002  0.005  0.000  0.000
 End Juvenil-Floral Init    7  29.8  19.2  24.5  14.1  24.00  363.5   30.0   15.2   26.6    0    0    3    1    0    3  0.000  0.000  0.001  0.002  0.000  0.000
 Floral Init-End Lf Grow   38  29.6  18.4  24.0  14.9  24.00  363.6  152.0  117.8  137.7    0    0   17    1    0   13  0.099  0.141  0.000  0.000  0.000  0.000
 End Lf Grth-Beg Grn Fil   10  32.0  18.5  25.3  18.8  24.00  363.7    0.0   15.8   45.9    0    0    9    4    1    0  0.699  0.800  0.000  0.000  0.000  0.000
 Grain Filling Phase       43  33.2  18.0  25.6  18.2  24.00  363.9   56.1   64.4  203.2    0    0   43   32   13    7  0.647  0.707  0.000  0.000  0.000  0.000


 Planting to Harvest      119  31.4  18.4  24.9  16.5  24.00  363.7  292.1  256.7  504.7    0    0   88   44   15   30  0.339  0.383  0.000  0.001  0.000  0.000
----------------------------------------------------------------------------------------------------------------------------------------------------------------


*Resource Productivity
 Growing season length: 119 days 

 Precipitation during growing season       292.1 mm[rain]
   Dry Matter Productivity                  2.64 kg[DM]/m3[rain]          =   26.4 kg[DM]/ha per mm[rain]
   Yield Productivity                       0.77 kg[grain yield]/m3[rain] =    7.7 kg[yield]/ha per mm[rain]

 Evapotranspiration during growing season  256.7 mm[ET]
   Dry Matter Productivity                  3.00 kg[DM]/m3[ET]            =   30.0 kg[DM]/ha per mm[ET]
   Yield Productivity                       0.88 kg[grain yield]/m3[ET]   =    8.8 kg[yield]/ha per mm[ET]

 Transpiration during growing season       139.3 mm[EP]
   Dry Matter Productivity                  5.53 kg[DM]/m3[EP]            =   55.3 kg[DM]/ha per mm[EP]
   Yield Productivity                       1.62 kg[grain yield]/m3[EP]   =   16.2 kg[yield]/ha per mm[EP]

 N applied during growing season            161. kg[N applied]/ha
   Dry Matter Productivity                  47.8 kg[DM]/kg[N applied]
   Yield Productivity                       14.0 kg[yield]/kg[N applied]

 N uptake during growing season              126 kg[N uptake]/ha
   Dry Matter Productivity                  61.1 kg[DM]/kg[N uptake]
   Yield Productivity                       17.9 kg[yield]/kg[N uptake]

--------------------------------------------------------------------------------------------------------------

                     Maize YIELD :     2256 kg/ha    [Dry weight] 

**************************************************************************************************************

*DSSAT Cropping System Model Ver. 4.6.1.000 -release      OCT 24, 2017; 10:42:40
                                                                                
*RUN   8        : P05/07                    MZCER046 ANBU1997    8              
 MODEL          : MZCER046 - Maize                                              
 EXPERIMENT     : ANBU1997 MZ  Analisis a침os de bajo rendimiento Buga          
 DATA PATH      : C:\DSSAT46\maize\                                             
 TREATMENT  8   : P05/07                    MZCER046                            
                                                                                
                                                                                
 CROP           : Maize            CULTIVAR : DK7088           ECOTYPE :IB0001  
 STARTING DATE  : APR  7 1997                                                   
 PLANTING DATE  : MAY  7 1997        PLANTS/m2 :  6.2     ROW SPACING :  80.cm  
 WEATHER        : CUNI   1997                                                   
 SOIL           : CCBUGA2017     TEXTURE : CL    -   Suelo Buga MADR Fase I     
 SOIL INITIAL C : DEPTH: 90cm EXTR. H2O: 83.9mm  NO3:  0.0kg/ha  NH4:  0.0kg/ha 
 WATER BALANCE  : RAINFED                                                       
 IRRIGATION     : NOT IRRIGATED                                                 
 NITROGEN BAL.  : SOIL-N & N-UPTAKE SIMULATION; NO N-FIXATION                   
 N-FERTILIZER   :      161 kg/ha IN     5 APPLICATIONS                          
 RESIDUE/MANURE : INITIAL :     0 kg/ha ;       0 kg/ha IN     0 APPLICATIONS   
 ENVIRONM. OPT. : DAYL=    0.00  SRAD=    0.00  TMAX=    0.00  TMIN=    0.00    
                  RAIN=    0.00  CO2 =    0.00  DEW =    0.00  WIND=    0.00    
 SIMULATION OPT : WATER   :Y  NITROGEN:Y  N-FIX:N  PHOSPH :N  PESTS  :N         
                  PHOTO   :C  ET      :R  INFIL:S  HYDROL :R  SOM    :G         
                  CO2 363ppm  NSWIT   :1  EVAP :S  SOIL   :2  STEMP  :D         
 MANAGEMENT OPT : PLANTING:R  IRRIG   :N  FERT :D  RESIDUE:R  HARVEST:M         
                  WEATHER :M  TILLAGE :N                                        
                                                                                
*SUMMARY OF SOIL AND GENETIC INPUT PARAMETERS                                   
                                                                                
   SOIL LOWER UPPER   SAT  EXTR  INIT   ROOT   BULK     pH    NO3    NH4    ORG 
  DEPTH LIMIT LIMIT    SW    SW    SW   DIST   DENS                          C  
   cm   cm3/cm3    cm3/cm3    cm3/cm3         g/cm3         ugN/g  ugN/g     %  
------------------------------------------------------------------------------- 
  0-  5 0.215 0.331 0.341 0.116 0.331   1.00   1.68   6.70   0.00   0.00   0.75 
  5- 15 0.215 0.331 0.341 0.116 0.331   1.00   1.68   6.70   0.00   0.00   0.75 
 15- 25 0.215 0.331 0.341 0.116 0.331   1.00   1.68   6.70   0.00   0.00   0.75 
 25- 35 0.181 0.291 0.364 0.110 0.291   0.50   1.61   7.20   0.00   0.00   0.53 
 35- 45 0.181 0.291 0.364 0.110 0.291   0.50   1.61   7.20   0.00   0.00   0.53 
 45- 67 0.096 0.169 0.404 0.073 0.169   0.27   1.51   7.00   0.00   0.00   0.05 
 67- 90 0.096 0.169 0.404 0.073 0.169   0.27   1.51   7.00   0.00   0.00   0.05 
                                                                                
TOT- 90  13.3  21.7  34.0   8.4  21.7  <--cm   -  kg/ha-->    0.0    0.0  51964 
SOIL ALBEDO    : 0.09      EVAPORATION LIMIT : 6.00         MIN. FACTOR  : 1.00 
RUNOFF CURVE # :76.00      DRAINAGE RATE     : 0.60         FERT. FACTOR : 1.00 
                                                                                
 Maize      CULTIVAR :CI0004-DK7088             ECOTYPE :IB0001                 
 P1     : 229.00  P2     : 0.3000  P5     : 971.00                              
 G2     : 957.00  G3     :  7.500  PHINT  : 45.000                              


*SIMULATED CROP AND SOIL STATUS AT MAIN DEVELOPMENT STAGES

 RUN NO.     8     P05/07                  

        CROP GROWTH     BIOMASS         LEAF   CROP N     STRESS      STRESS                                           
   DATE  AGE STAGE        kg/ha    LAI   NUM  kg/ha  %   H2O  Nitr Phos1 Phos2  RSTG                                   
 ------  --- ----------   -----  -----  ----  ---  ---  ----  ----  ----  ----  ----                                   
  7 APR    0 Start Sim        0   0.00   0.0    0  0.0  0.00  0.00  0.00  0.00     7
  7 MAY    0 Sowing           0   0.00   0.0    0  0.0  0.00  0.00  0.00  0.00     8
  8 MAY    1 Germinate        0   0.00   0.0    0  0.0  0.00  0.00  0.00  0.00     9
 13 MAY    6 Emergence       25   0.00   2.1    1  4.4  0.00  0.01  0.00  0.00     1
 26 MAY   19 End Juveni      95   0.20   7.7    4  3.7  0.00  0.00  0.00  0.00     2
  2 JUN   26 Floral Ini     293   0.54  10.3   11  3.6  0.00  0.00  0.00  0.00     3
  9 JUL   63 75% Silkin    4855   2.46  21.3  101  2.1  0.23  0.00  0.00  0.00     4
 19 JUL   73 Beg Gr Fil    5160   1.66  21.3  102  2.0  0.84  0.00  0.00  0.00     5
 31 AUG  116 End Gr Fil    6858   0.41  21.3  102  1.5  0.71  0.00  0.00  0.00     6
  3 SEP  119 Maturity      6858   0.41  21.3  102  1.5  0.91  0.00  0.00  0.00    10
[...]
 NITROGEN BAL.  : SOIL-N & N-UPTAKE SIMULATION; NO N-FIXATION                   
 N-FERTILIZER   :      161 kg/ha IN     5 APPLICATIONS                          
 RESIDUE/MANURE : INITIAL :     0 kg/ha ;       0 kg/ha IN     0 APPLICATIONS   
 ENVIRONM. OPT. : DAYL=    0.00  SRAD=    0.00  TMAX=    0.00  TMIN=    0.00    
                  RAIN=    0.00  CO2 =    0.00  DEW =    0.00  WIND=    0.00    
 SIMULATION OPT : WATER   :Y  NITROGEN:Y  N-FIX:N  PHOSPH :N  PESTS  :N         
                  PHOTO   :C  ET      :R  INFIL:S  HYDROL :R  SOM    :G         
                  CO2 364ppm  NSWIT   :1  EVAP :S  SOIL   :2  STEMP  :D         
 MANAGEMENT OPT : PLANTING:R  IRRIG   :N  FERT :D  RESIDUE:R  HARVEST:M         
                  WEATHER :M  TILLAGE :N                                        
                                                                                
*SUMMARY OF SOIL AND GENETIC INPUT PARAMETERS                                   
                                                                                
   SOIL LOWER UPPER   SAT  EXTR  INIT   ROOT   BULK     pH    NO3    NH4    ORG 
  DEPTH LIMIT LIMIT    SW    SW    SW   DIST   DENS                          C  
   cm   cm3/cm3    cm3/cm3    cm3/cm3         g/cm3         ugN/g  ugN/g     %  
------------------------------------------------------------------------------- 
  0-  5 0.215 0.331 0.341 0.116 0.331   1.00   1.68   6.70   0.00   0.00   0.75 
  5- 15 0.215 0.331 0.341 0.116 0.331   1.00   1.68   6.70   0.00   0.00   0.75 
 15- 25 0.215 0.331 0.341 0.116 0.331   1.00   1.68   6.70   0.00   0.00   0.75 
 25- 35 0.181 0.291 0.364 0.110 0.291   0.50   1.61   7.20   0.00   0.00   0.53 
 35- 45 0.181 0.291 0.364 0.110 0.291   0.50   1.61   7.20   0.00   0.00   0.53 
 45- 67 0.096 0.169 0.404 0.073 0.169   0.27   1.51   7.00   0.00   0.00   0.05 
 67- 90 0.096 0.169 0.404 0.073 0.169   0.27   1.51   7.00   0.00   0.00   0.05 
                                                                                
TOT- 90  13.3  21.7  34.0   8.4  21.7  <--cm   -  kg/ha-->    0.0    0.0  51964 
SOIL ALBEDO    : 0.09      EVAPORATION LIMIT : 6.00         MIN. FACTOR  : 1.00 
RUNOFF CURVE # :76.00      DRAINAGE RATE     : 0.60         FERT. FACTOR : 1.00 
                                                                                
 Maize      CULTIVAR :CI0004-DK7088             ECOTYPE :IB0001                 
 P1     : 229.00  P2     : 0.3000  P5     : 971.00                              
 G2     : 957.00  G3     :  7.500  PHINT  : 45.000                              


*SIMULATED CROP AND SOIL STATUS AT MAIN DEVELOPMENT STAGES

 RUN NO.    35     P12/14                  

        CROP GROWTH     BIOMASS         LEAF   CROP N     STRESS      STRESS                                           
   DATE  AGE STAGE        kg/ha    LAI   NUM  kg/ha  %   H2O  Nitr Phos1 Phos2  RSTG                                   
 ------  --- ----------   -----  -----  ----  ---  ---  ----  ----  ----  ----  ----                                   
 14 NOV    0 Start Sim        0   0.00   0.0    0  0.0  0.00  0.00  0.00  0.00     7
 14 DEC    0 Sowing           0   0.00   0.0    0  0.0  0.00  0.00  0.00  0.00     8
 15 DEC    1 Germinate        0   0.00   0.0    0  0.0  0.00  0.00  0.00  0.00     9
 20 DEC    6 Emergence       25   0.00   2.1    1  4.4  0.00  0.01  0.00  0.00     1
  1 JAN   18 End Juveni     114   0.24   7.6    4  3.4  0.08  0.00  0.00  0.00     2
  5 JAN   22 Floral Ini     268   0.50   9.4    8  3.1  0.07  0.00  0.00  0.00     3
  5 FEB   53 75% Silkin    2058   0.92  19.9   29  1.4  0.56  0.27  0.00  0.00     4
 15 FEB   63 Beg Gr Fil    2543   0.82  19.9   46  1.8  0.29  0.08  0.00  0.00     5
 30 MAR  106 End Gr Fil    3699   0.21  19.9   46  1.3  0.68  0.00  0.00  0.00     6
  2 APR  109 Maturity      3699   0.21  19.9   46  1.3  0.00  0.00  0.00  0.00    10
  2 APR  109 Harvest       3699   0.21  19.9   46  1.3  0.00  0.00  0.00  0.00    10


*MAIN GROWTH AND DEVELOPMENT VARIABLES

@     VARIABLE                                         SIMULATED     MEASURED
      --------                                         ---------     --------
      Anthesis day (dap)                                      53          -99
      Physiological maturity day (dap)                       109          -99
      Yield at harvest maturity (kg [dm]/ha)                1565          -99
      Number at maturity (no/m2)                             946          -99
      Unit wt at maturity (g [dm]/unit)                   0.1654          -99
      Number at maturity (no/unit)                         152.6          -99
      Tops weight at maturity (kg [dm]/ha)                  3699          -99
      By-product produced (stalk) at maturity (kg[dm]/ha    2165          -99
      Leaf area index, maximum                              1.26          -99
      Harvest index at maturity                            0.423          -99
      Grain N at maturity (kg/ha)                             28          -99
      Tops N at maturity (kg/ha)                              46          -99
      Stem N at maturity (kg/ha)                              18          -99
      Grain N at maturity (%)                                1.8          -99
      Tops weight at anthesis (kg [dm]/ha)                  2044          -99
      Tops N at anthesis (kg/ha)                              29          -99
      Leaf number per stem at maturity                     19.92          -99
      Emergence day (dap)                                      6          -99


*ENVIRONMENTAL AND STRESS FACTORS

 |-----Development Phase------|--------------------------------------Environment--------------------------------------|-----------------Stress-----------------|
                              |---------------Average--------------|-----Cumulative-----|--------Count of days--------|          (0=Min, 1=Max Stress)         |
                         Time  Temp  Temp  Temp Solar Photop                Evapo    Pot TMIN TMIN TMAX TMAX TMAX RAIN|----Water----|---Nitrogen--|-Phosphorus-|
                         Span   Max   Min  Mean   Rad  [day]    CO2   Rain  Trans     ET   <    <    >    >    >    >   Photo         Photo         Photo
                         days    邂    邂    邂 MJ/m2     hr    ppm     mm     mm     mm  0邂  2邂 30邂 32邂 34邂  0mm  synth Growth  synth Growth  synth Growth
----------------------------------------------------------------------------------------------------------------------------------------------------------------
 Emergence-End Juvenile    12  32.7  18.0  25.4  17.3   0.00  364.9    9.0    9.1   57.7    0    0   12    8    0    1  0.000  0.055  0.002  0.006  0.000  0.000
 End Juvenil-Floral Init    4  34.2  18.6  26.4  20.1   0.00  364.9    0.0    7.2   22.5    0    0    4    4    2    0  0.000  0.136  0.001  0.003  0.000  0.000
 Floral Init-End Lf Grow   31  33.4  19.0  26.2  19.0   0.00  365.1   11.0   56.4  154.6    0    0   29   26    8    2  0.437  0.536  0.102  0.252  0.000  0.000
 End Lf Grth-Beg Grn Fil   10  31.5  19.1  25.3  12.8   0.00  365.2   45.0   19.8   33.4    0    0    6    5    1    6  0.302  0.368  0.050  0.126  0.000  0.000
 Grain Filling Phase       43  32.5  19.1  25.8  17.8   6.27  365.5   59.3   57.1  206.9    0    0   36   29    5   10  0.622  0.684  0.000  0.000  0.000  0.000


 Planting to Harvest      109  32.6  18.9  25.8  17.5   2.89  365.3  136.1  159.6  512.0    0    0   94   74   16   22  0.397  0.467  0.034  0.084  0.000  0.000
----------------------------------------------------------------------------------------------------------------------------------------------------------------


*Resource Productivity
 Growing season length: 109 days 

 Precipitation during growing season       136.1 mm[rain]
   Dry Matter Productivity                  2.72 kg[DM]/m3[rain]          =   27.2 kg[DM]/ha per mm[rain]
   Yield Productivity                       1.15 kg[grain yield]/m3[rain] =   11.5 kg[yield]/ha per mm[rain]

 Evapotranspiration during growing season  159.6 mm[ET]
   Dry Matter Productivity                  2.32 kg[DM]/m3[ET]            =   23.2 kg[DM]/ha per mm[ET]
   Yield Productivity                       0.98 kg[grain yield]/m3[ET]   =    9.8 kg[yield]/ha per mm[ET]

 Transpiration during growing season        79.8 mm[EP]
   Dry Matter Productivity                  4.64 kg[DM]/m3[EP]            =   46.4 kg[DM]/ha per mm[EP]
   Yield Productivity                       1.96 kg[grain yield]/m3[EP]   =   19.6 kg[yield]/ha per mm[EP]

 N applied during growing season            161. kg[N applied]/ha
   Dry Matter Productivity                  23.0 kg[DM]/kg[N applied]
   Yield Productivity                        9.7 kg[yield]/kg[N applied]

 N uptake during growing season               52 kg[N uptake]/ha
   Dry Matter Productivity                  71.1 kg[DM]/kg[N uptake]
   Yield Productivity                       30.1 kg[yield]/kg[N uptake]

--------------------------------------------------------------------------------------------------------------

                     Maize YIELD :     1565 kg/ha    [Dry weight] 

**************************************************************************************************************

*DSSAT Cropping System Model Ver. 4.6.1.000 -release      OCT 24, 2017; 10:42:52
                                                                                
*RUN  36        : P12/19                    MZCER046 ANBU1997   36              
 MODEL          : MZCER046 - Maize                                              
 EXPERIMENT     : ANBU1997 MZ  Analisis a침os de bajo rendimiento Buga          
 DATA PATH      : C:\DSSAT46\maize\                                             
 TREATMENT 36   : P12/19                    MZCER046                            
                                                                                
                                                                                
 CROP           : Maize            CULTIVAR : DK7088           ECOTYPE :IB0001  
 STARTING DATE  : NOV 19 1997                                                   
 PLANTING DATE  : DEC 19 1997        PLANTS/m2 :  6.2     ROW SPACING :  80.cm  
 WEATHER        : CUNI   1997                                                   
 SOIL           : CCBUGA2017     TEXTURE : CL    -   Suelo Buga MADR Fase I     
 SOIL INITIAL C : DEPTH: 90cm EXTR. H2O: 83.9mm  NO3:  0.0kg/ha  NH4:  0.0kg/ha 
 WATER BALANCE  : RAINFED                                                       
 IRRIGATION     : NOT IRRIGATED                                                 
 NITROGEN BAL.  : SOIL-N & N-UPTAKE SIMULATION; NO N-FIXATION                   
 N-FERTILIZER   :      161 kg/ha IN     5 APPLICATIONS                          
 RESIDUE/MANURE : INITIAL :     0 kg/ha ;       0 kg/ha IN     0 APPLICATIONS   
 ENVIRONM. OPT. : DAYL=    0.00  SRAD=    0.00  TMAX=    0.00  TMIN=    0.00    
                  RAIN=    0.00  CO2 =    0.00  DEW =    0.00  WIND=    0.00    
 SIMULATION OPT : WATER   :Y  NITROGEN:Y  N-FIX:N  PHOSPH :N  PESTS  :N         
                  PHOTO   :C  ET      :R  INFIL:S  HYDROL :R  SOM    :G         
                  CO2 365ppm  NSWIT   :1  EVAP :S  SOIL   :2  STEMP  :D         
 MANAGEMENT OPT : PLANTING:R  IRRIG   :N  FERT :D  RESIDUE:R  HARVEST:M         
                  WEATHER :M  TILLAGE :N                                        
                                                                                
*SUMMARY OF SOIL AND GENETIC INPUT PARAMETERS                                   
                                                                                
   SOIL LOWER UPPER   SAT  EXTR  INIT   ROOT   BULK     pH    NO3    NH4    ORG 
  DEPTH LIMIT LIMIT    SW    SW    SW   DIST   DENS                          C  
   cm   cm3/cm3    cm3/cm3    cm3/cm3         g/cm3         ugN/g  ugN/g     %  
------------------------------------------------------------------------------- 
  0-  5 0.215 0.331 0.341 0.116 0.331   1.00   1.68   6.70   0.00   0.00   0.75 
  5- 15 0.215 0.331 0.341 0.116 0.331   1.00   1.68   6.70   0.00   0.00   0.75 
 15- 25 0.215 0.331 0.341 0.116 0.331   1.00   1.68   6.70   0.00   0.00   0.75 
 25- 35 0.181 0.291 0.364 0.110 0.291   0.50   1.61   7.20   0.00   0.00   0.53 
 35- 45 0.181 0.291 0.364 0.110 0.291   0.50   1.61   7.20   0.00   0.00   0.53 
 45- 67 0.096 0.169 0.404 0.073 0.169   0.27   1.51   7.00   0.00   0.00   0.05 
 67- 90 0.096 0.169 0.404 0.073 0.169   0.27   1.51   7.00   0.00   0.00   0.05 
                                                                                
TOT- 90  13.3  21.7  34.0   8.4  21.7  <--cm   -  kg/ha-->    0.0    0.0  51964 
SOIL ALBEDO    : 0.09      EVAPORATION LIMIT : 6.00         MIN. FACTOR  : 1.00 
RUNOFF CURVE # :76.00      DRAINAGE RATE     : 0.60         FERT. FACTOR : 1.00 
                                                                                
 Maize      CULTIVAR :CI0004-DK7088             ECOTYPE :IB0001                 
 P1     : 229.00  P2     : 0.3000  P5     : 971.00                              
 G2     : 957.00  G3     :  7.500  PHINT  : 45.000                              


*SIMULATED CROP AND SOIL STATUS AT MAIN DEVELOPMENT STAGES

 RUN NO.    36     P12/19                  

        CROP GROWTH     BIOMASS         LEAF   CROP N     STRESS      STRESS                                           
   DATE  AGE STAGE        kg/ha    LAI   NUM  kg/ha  %   H2O  Nitr Phos1 Phos2  RSTG                                   
 ------  --- ----------   -----  -----  ----  ---  ---  ----  ----  ----  ----  ----                                   
 19 NOV    0 Start Sim        0   0.00   0.0    0  0.0  0.00  0.00  0.00  0.00     7
 19 DEC    0 Sowing           0   0.00   0.0    0  0.0  0.00  0.00  0.00  0.00     8
 20 DEC    1 Germinate        0   0.00   0.0    0  0.0  0.00  0.00  0.00  0.00     9
 25 DEC    6 Emergence       25   0.00   2.1    1  4.4  0.00  0.01  0.00  0.00     1
  6 JAN   18 End Juveni     117   0.25   7.7    4  3.3  0.09  0.00  0.00  0.00     2
 10 JAN   22 Floral Ini     249   0.47   9.4    8  3.3  0.08  0.00  0.00  0.00     3
 10 FEB   53 75% Silkin    2333   1.10  19.6   50  2.2  0.53  0.34  0.00  0.00     4
 20 FEB   63 Beg Gr Fil    3488   1.02  19.6   51  1.5  0.24  0.00  0.00  0.00     5
  4 APR  106 End Gr Fil    4606   0.25  19.6   51  1.1  0.68  0.00  0.00  0.00     6
  6 APR  108 Maturity      4606   0.25  19.6   51  1.1  0.00  0.00  0.00  0.00    10
  6 APR  108 Harvest       4606   0.25  19.6   51  1.1  0.00  0.00  0.00  0.00    10


*MAIN GROWTH AND DEVELOPMENT VARIABLES

@     VARIABLE                                         SIMULATED     MEASURED
      --------                                         ---------     --------
      Anthesis day (dap)                                      53          -99
      Physiological maturity day (dap)                       108          -99
      Yield at harvest maturity (kg [dm]/ha)                1751          -99
      Number at maturity (no/m2)                            1647          -99
      Unit wt at maturity (g [dm]/unit)                   0.1063          -99
      Number at maturity (no/unit)                         265.6          -99
      Tops weight at maturity (kg [dm]/ha)                  4606          -99
      By-product produced (stalk) at maturity (kg[dm]/ha    2886          -99
      Leaf area index, maximum                              1.31          -99
      Harvest index at maturity                            0.380          -99
      Grain N at maturity (kg/ha)                             32          -99
      Tops N at maturity (kg/ha)                              51          -99
      Stem N at maturity (kg/ha)                              19          -99
      Grain N at maturity (%)                                1.8          -99
      Tops weight at anthesis (kg [dm]/ha)                  2281          -99
      Tops N at anthesis (kg/ha)                              50          -99
      Leaf number per stem at maturity                     19.64          -99
      Emergence day (dap)                                      6          -99


*ENVIRONMENTAL AND STRESS FACTORS

 |-----Development Phase------|--------------------------------------Environment--------------------------------------|-----------------Stress-----------------|
                              |---------------Average--------------|-----Cumulative-----|--------Count of days--------|          (0=Min, 1=Max Stress)         |
                         Time  Temp  Temp  Temp Solar Photop                Evapo    Pot TMIN TMIN TMAX TMAX TMAX RAIN|----Water----|---Nitrogen--|-Phosphorus-|
                         Span   Max   Min  Mean   Rad  [day]    CO2   Rain  Trans     ET   <    <    >    >    >    >   Photo         Photo         Photo
                         days    邂    邂    邂 MJ/m2     hr    ppm     mm     mm     mm  0邂  2邂 30邂 32邂 34邂  0mm  synth Growth  synth Growth  synth Growth
----------------------------------------------------------------------------------------------------------------------------------------------------------------
 Emergence-End Juvenile    12  33.5  18.2  25.9  18.0   0.00  364.9    9.0   11.1   60.9    0    0   12   10    3    1  0.009  0.090  0.002  0.004  0.000  0.000
 End Juvenil-Floral Init    4  31.3  19.2  25.2  14.7   0.00  364.9    0.0    5.1   15.9    0    0    3    2    0    0  0.000  0.076  0.001  0.004  0.000  0.000
 Floral Init-End Lf Grow   31  33.6  19.1  26.3  18.6   0.00  365.1   27.0   62.1  151.7    0    0   30   27    8    4  0.384  0.512  0.174  0.336  0.000  0.000
 End Lf Grth-Beg Grn Fil   10  31.4  19.0  25.2  16.0   0.00  365.3   29.0   30.2   41.3    0    0    5    4    1    4  0.116  0.211  0.000  0.000  0.000  0.000
 Grain Filling Phase       43  32.3  19.1  25.7  17.2   8.07  365.6   82.1   55.2  198.7    0    0   36   26    4   14  0.649  0.697  0.000  0.000  0.000  0.000


 Planting to Harvest      108  32.7  18.9  25.8  17.6   3.52  365.3  153.6  173.2  509.6    0    0   94   74   16   24  0.380  0.457  0.050  0.097  0.000  0.000
----------------------------------------------------------------------------------------------------------------------------------------------------------------


*Resource Productivity
 Growing season length: 108 days 

 Precipitation during growing season       153.6 mm[rain]
   Dry Matter Productivity                  3.00 kg[DM]/m3[rain]          =   30.0 kg[DM]/ha per mm[rain]
   Yield Productivity                       1.14 kg[grain yield]/m3[rain] =   11.4 kg[yield]/ha per mm[rain]

 Evapotranspiration during growing season  173.2 mm[ET]
   Dry Matter Productivity                  2.66 kg[DM]/m3[ET]            =   26.6 kg[DM]/ha per mm[ET]
   Yield Productivity                       1.01 kg[grain yield]/m3[ET]   =   10.1 kg[yield]/ha per mm[ET]

 Transpiration during growing season        85.4 mm[EP]
   Dry Matter Productivity                  5.39 kg[DM]/m3[EP]            =   53.9 kg[DM]/ha per mm[EP]
   Yield Productivity                       2.05 kg[grain yield]/m3[EP]   =   20.5 kg[yield]/ha per mm[EP]

 N applied during growing season            161. kg[N applied]/ha
   Dry Matter Productivity                  28.6 kg[DM]/kg[N applied]
   Yield Productivity                       10.9 kg[yield]/kg[N applied]

 N uptake during growing season               57 kg[N uptake]/ha
   Dry Matter Productivity                  80.8 kg[DM]/kg[N uptake]
   Yield Productivity                       30.7 kg[yield]/kg[N uptake]

--------------------------------------------------------------------------------------------------------------

                     Maize YIELD :     1751 kg/ha    [Dry weight] 

**************************************************************************************************************
