*SIMULATION OVERVIEW FILE

*DSSAT Cropping System Model Ver. 4.6.1.000 -release      OCT 24, 2017; 10:56:57
                                                                                
*RUN   1        : P07/14                    MZCER046 ANES1986    1              
 MODEL          : MZCER046 - Maize                                              
 EXPERIMENT     : ANES1986 MZ  Analisis a침os de bajo rendimiento Espinal       
 DATA PATH      : C:\DSSAT46\maize\                                             
 TREATMENT  1   : P07/14                    MZCER046                            
                                                                                
                                                                                
 CROP           : Maize            CULTIVAR : P30F35           ECOTYPE :IB0001  
 STARTING DATE  : JUN 14 1986                                                   
 PLANTING DATE  : JUL 14 1986        PLANTS/m2 :  6.2     ROW SPACING :  80.cm  
 WEATHER        : CNAT   1986                                                   
 SOIL           : CCESPI2017     TEXTURE : SL    -   Suelo Espinal Calibraci    
 SOIL INITIAL C : DEPTH:100cm EXTR. H2O: 83.6mm  NO3:  0.0kg/ha  NH4:  0.0kg/ha 
 WATER BALANCE  : RAINFED                                                       
 IRRIGATION     : NOT IRRIGATED                                                 
 NITROGEN BAL.  : SOIL-N & N-UPTAKE SIMULATION; NO N-FIXATION                   
 N-FERTILIZER   :      162 kg/ha IN     6 APPLICATIONS                          
 RESIDUE/MANURE : INITIAL :     0 kg/ha ;       0 kg/ha IN     0 APPLICATIONS   
 ENVIRONM. OPT. : DAYL=    0.00  SRAD=    0.00  TMAX=    0.00  TMIN=    0.00    
                  RAIN=    0.00  CO2 =    0.00  DEW =    0.00  WIND=    0.00    
 SIMULATION OPT : WATER   :Y  NITROGEN:Y  N-FIX:N  PHOSPH :N  PESTS  :N         
                  PHOTO   :C  ET      :R  INFIL:S  HYDROL :R  SOM    :G         
                  CO2 347ppm  NSWIT   :1  EVAP :S  SOIL   :2  STEMP  :D         
 MANAGEMENT OPT : PLANTING:R  IRRIG   :N  FERT :D  RESIDUE:R  HARVEST:M         
                  WEATHER :M  TILLAGE :N                                        
                                                                                
*SUMMARY OF SOIL AND GENETIC INPUT PARAMETERS                                   
                                                                                
   SOIL LOWER UPPER   SAT  EXTR  INIT   ROOT   BULK     pH    NO3    NH4    ORG 
  DEPTH LIMIT LIMIT    SW    SW    SW   DIST   DENS                          C  
   cm   cm3/cm3    cm3/cm3    cm3/cm3         g/cm3         ugN/g  ugN/g     %  
------------------------------------------------------------------------------- 
  0-  5 0.160 0.252 0.376 0.092 0.252   1.00   1.69   6.60   0.00   0.00   0.45 
  5- 15 0.160 0.252 0.376 0.092 0.252   1.00   1.69   6.60   0.00   0.00   0.45 
 15- 30 0.160 0.252 0.376 0.092 0.252   1.00   1.69   6.60   0.00   0.00   0.45 
 30- 53 0.120 0.200 0.440 0.080 0.200   0.27   1.40   7.10   0.00   0.00   0.17 
 53- 77 0.120 0.200 0.440 0.080 0.200   0.27   1.40   7.10   0.00   0.00   0.17 
 77-100 0.120 0.200 0.440 0.080 0.200   0.27   1.40   7.10   0.00   0.00   0.17 
                                                                                
TOT-100  13.2  21.6  42.1   8.4  21.6  <--cm   -  kg/ha-->    0.0    0.0  39475 
SOIL ALBEDO    : 0.09      EVAPORATION LIMIT : 6.00         MIN. FACTOR  : 1.00 
RUNOFF CURVE # :76.00      DRAINAGE RATE     : 0.60         FERT. FACTOR : 1.00 
                                                                                
 Maize      CULTIVAR :CI0001-P30F35             ECOTYPE :IB0001                 
 P1     : 200.00  P2     : 0.3000  P5     : 925.00                              
 G2     : 954.00  G3     :  7.000  PHINT  : 50.000                              


*SIMULATED CROP AND SOIL STATUS AT MAIN DEVELOPMENT STAGES

 RUN NO.     1     P07/14                  

        CROP GROWTH     BIOMASS         LEAF   CROP N     STRESS      STRESS                                           
   DATE  AGE STAGE        kg/ha    LAI   NUM  kg/ha  %   H2O  Nitr Phos1 Phos2  RSTG                                   
 ------  --- ----------   -----  -----  ----  ---  ---  ----  ----  ----  ----  ----                                   
 14 JUN    0 Start Sim        0   0.00   0.0    0  0.0  0.00  0.00  0.00  0.00     7
 14 JUL    0 Sowing           0   0.00   0.0    0  0.0  0.00  0.00  0.00  0.00     8
 15 JUL    1 Germinate        0   0.00   0.0    0  0.0  0.00  0.00  0.00  0.00     9
 19 JUL    5 Emergence       25   0.00   2.1    1  4.4  0.00  0.01  0.00  0.00     1
 29 JUL   15 End Juveni      86   0.19   6.8    3  3.2  0.04  0.00  0.00  0.00     2
  5 AUG   22 Floral Ini     300   0.53   9.8    6  2.0  0.14  0.12  0.00  0.00     3
  6 SEP   54 75% Silkin    2616   1.05  20.4   59  2.2  0.50  0.25  0.00  0.00     4
 14 SEP   62 Beg Gr Fil    2532   0.72  20.4   59  2.3  0.95  0.00  0.00  0.00     5
 21 OCT   99 End Gr Fil    3428   0.51  20.4   59  1.7  0.20  0.00  0.00  0.00     6
 24 OCT  102 Maturity      3428   0.51  20.4   59  1.7  0.00  0.00  0.00  0.00    10
 24 OCT  102 Harvest       3428   0.51  20.4   59  1.7  0.00  0.00  0.00  0.00    10


*MAIN GROWTH AND DEVELOPMENT VARIABLES

@     VARIABLE                                         SIMULATED     MEASURED
      --------                                         ---------     --------
      Anthesis day (dap)                                      54          -99
      Physiological maturity day (dap)                       102          -99
      Yield at harvest maturity (kg [dm]/ha)                 712          -99
      Number at maturity (no/m2)                             340          -99
      Unit wt at maturity (g [dm]/unit)                   0.2092          -99
      Number at maturity (no/unit)                          69.6          -99
      Tops weight at maturity (kg [dm]/ha)                  3428          -99
      By-product produced (stalk) at maturity (kg[dm]/ha    2749          -99
      Leaf area index, maximum                              1.37          -99
      Harvest index at maturity                            0.208          -99
      Grain N at maturity (kg/ha)                             12          -99
      Tops N at maturity (kg/ha)                              59          -99
      Stem N at maturity (kg/ha)                              43          -99
      Grain N at maturity (%)                                1.7          -99
      Tops weight at anthesis (kg [dm]/ha)                  2617          -99
      Tops N at anthesis (kg/ha)                              59          -99
      Leaf number per stem at maturity                     20.41          -99
      Emergence day (dap)                                      5          -99


*ENVIRONMENTAL AND STRESS FACTORS

 |-----Development Phase------|--------------------------------------Environment--------------------------------------|-----------------Stress-----------------|
                              |---------------Average--------------|-----Cumulative-----|--------Count of days--------|          (0=Min, 1=Max Stress)         |
                         Time  Temp  Temp  Temp Solar Photop                Evapo    Pot TMIN TMIN TMAX TMAX TMAX RAIN|----Water----|---Nitrogen--|-Phosphorus-|
                         Span   Max   Min  Mean   Rad  [day]    CO2   Rain  Trans     ET   <    <    >    >    >    >   Photo         Photo         Photo
                         days    邂    邂    邂 MJ/m2     hr    ppm     mm     mm     mm  0邂  2邂 30邂 32邂 34邂  0mm  synth Growth  synth Growth  synth Growth
----------------------------------------------------------------------------------------------------------------------------------------------------------------
 Emergence-End Juvenile    10  34.2  21.0  27.6  19.5  24.00  347.2    0.0    4.2   57.0    0    0    9    9    6    0  0.005  0.036  0.002  0.006  0.000  0.000
 End Juvenil-Floral Init    7  34.8  21.0  27.9  19.5  24.00  347.2    0.0    8.2   38.9    0    0    7    7    6    0  0.000  0.092  0.025  0.064  0.000  0.000
 Floral Init-End Lf Grow   32  34.4  22.3  28.3  20.1  23.00  347.3   48.3   76.8  179.7    0    0   32   26   18    9  0.328  0.480  0.155  0.262  0.000  0.000
 End Lf Grth-Beg Grn Fil    8  36.3  23.2  29.8  18.8  16.01  347.3    0.0    5.0   45.2    0    0    8    8    7    0  0.921  0.948  0.000  0.000  0.000  0.000
 Grain Filling Phase       37  32.0  22.1  27.0  18.6   7.29  347.5  285.9  137.7  195.1    0    0   26   14   10   25  0.211  0.222  0.000  0.000  0.000  0.000


 Planting to Harvest      102  33.5  21.9  27.7  19.2  16.29  347.3  342.6  250.1  556.3    0    0   88   69   49   37  0.252  0.315  0.051  0.087  0.000  0.000
----------------------------------------------------------------------------------------------------------------------------------------------------------------


*Resource Productivity
 Growing season length: 102 days 

 Precipitation during growing season       342.6 mm[rain]
   Dry Matter Productivity                  1.00 kg[DM]/m3[rain]          =   10.0 kg[DM]/ha per mm[rain]
   Yield Productivity                       0.21 kg[grain yield]/m3[rain] =    2.1 kg[yield]/ha per mm[rain]

 Evapotranspiration during growing season  250.1 mm[ET]
   Dry Matter Productivity                  1.37 kg[DM]/m3[ET]            =   13.7 kg[DM]/ha per mm[ET]
   Yield Productivity                       0.28 kg[grain yield]/m3[ET]   =    2.8 kg[yield]/ha per mm[ET]

 Transpiration during growing season       108.7 mm[EP]
   Dry Matter Productivity                  3.15 kg[DM]/m3[EP]            =   31.5 kg[DM]/ha per mm[EP]
   Yield Productivity                       0.65 kg[grain yield]/m3[EP]   =    6.5 kg[yield]/ha per mm[EP]

 N applied during growing season            162. kg[N applied]/ha
   Dry Matter Productivity                  21.2 kg[DM]/kg[N applied]
   Yield Productivity                        4.4 kg[yield]/kg[N applied]

 N uptake during growing season               64 kg[N uptake]/ha
   Dry Matter Productivity                  53.6 kg[DM]/kg[N uptake]
   Yield Productivity                       11.1 kg[yield]/kg[N uptake]

--------------------------------------------------------------------------------------------------------------

                     Maize YIELD :      712 kg/ha    [Dry weight] 

**************************************************************************************************************

*DSSAT Cropping System Model Ver. 4.6.1.000 -release      OCT 24, 2017; 10:56:57
                                                                                
*RUN   2        : P07/19                    MZCER046 ANES1986    2              
 MODEL          : MZCER046 - Maize                                              
 EXPERIMENT     : ANES1986 MZ  Analisis a침os de bajo rendimiento Espinal       
 DATA PATH      : C:\DSSAT46\maize\                                             
 TREATMENT  2   : P07/19                    MZCER046                            
                                                                                
                                                                                
 CROP           : Maize            CULTIVAR : P30F35           ECOTYPE :IB0001  
 STARTING DATE  : JUN 19 1986                                                   
 PLANTING DATE  : JUL 19 1986        PLANTS/m2 :  6.2     ROW SPACING :  80.cm  
 WEATHER        : CNAT   1986                                                   
 SOIL           : CCESPI2017     TEXTURE : SL    -   Suelo Espinal Calibraci    
 SOIL INITIAL C : DEPTH:100cm EXTR. H2O: 83.6mm  NO3:  0.0kg/ha  NH4:  0.0kg/ha 
 WATER BALANCE  : RAINFED                                                       
 IRRIGATION     : NOT IRRIGATED                                                 
 NITROGEN BAL.  : SOIL-N & N-UPTAKE SIMULATION; NO N-FIXATION                   
 N-FERTILIZER   :      162 kg/ha IN     6 APPLICATIONS                          
 RESIDUE/MANURE : INITIAL :     0 kg/ha ;       0 kg/ha IN     0 APPLICATIONS   
 ENVIRONM. OPT. : DAYL=    0.00  SRAD=    0.00  TMAX=    0.00  TMIN=    0.00    
                  RAIN=    0.00  CO2 =    0.00  DEW =    0.00  WIND=    0.00    
 SIMULATION OPT : WATER   :Y  NITROGEN:Y  N-FIX:N  PHOSPH :N  PESTS  :N         
                  PHOTO   :C  ET      :R  INFIL:S  HYDROL :R  SOM    :G         
                  CO2 347ppm  NSWIT   :1  EVAP :S  SOIL   :2  STEMP  :D         
 MANAGEMENT OPT : PLANTING:R  IRRIG   :N  FERT :D  RESIDUE:R  HARVEST:M         
                  WEATHER :M  TILLAGE :N                                        
                                                                                
*SUMMARY OF SOIL AND GENETIC INPUT PARAMETERS                                   
                                                                                
   SOIL LOWER UPPER   SAT  EXTR  INIT   ROOT   BULK     pH    NO3    NH4    ORG 
  DEPTH LIMIT LIMIT    SW    SW    SW   DIST   DENS                          C  
   cm   cm3/cm3    cm3/cm3    cm3/cm3         g/cm3         ugN/g  ugN/g     %  
------------------------------------------------------------------------------- 
  0-  5 0.160 0.252 0.376 0.092 0.252   1.00   1.69   6.60   0.00   0.00   0.45 
  5- 15 0.160 0.252 0.376 0.092 0.252   1.00   1.69   6.60   0.00   0.00   0.45 
 15- 30 0.160 0.252 0.376 0.092 0.252   1.00   1.69   6.60   0.00   0.00   0.45 
 30- 53 0.120 0.200 0.440 0.080 0.200   0.27   1.40   7.10   0.00   0.00   0.17 
 53- 77 0.120 0.200 0.440 0.080 0.200   0.27   1.40   7.10   0.00   0.00   0.17 
 77-100 0.120 0.200 0.440 0.080 0.200   0.27   1.40   7.10   0.00   0.00   0.17 
                                                                                
TOT-100  13.2  21.6  42.1   8.4  21.6  <--cm   -  kg/ha-->    0.0    0.0  39475 
SOIL ALBEDO    : 0.09      EVAPORATION LIMIT : 6.00         MIN. FACTOR  : 1.00 
RUNOFF CURVE # :76.00      DRAINAGE RATE     : 0.60         FERT. FACTOR : 1.00 
                                                                                
 Maize      CULTIVAR :CI0001-P30F35             ECOTYPE :IB0001                 
 P1     : 200.00  P2     : 0.3000  P5     : 925.00                              
 G2     : 954.00  G3     :  7.000  PHINT  : 50.000                              


*SIMULATED CROP AND SOIL STATUS AT MAIN DEVELOPMENT STAGES

 RUN NO.     2     P07/19                  

        CROP GROWTH     BIOMASS         LEAF   CROP N     STRESS      STRESS                                           
   DATE  AGE STAGE        kg/ha    LAI   NUM  kg/ha  %   H2O  Nitr Phos1 Phos2  RSTG                                   
 ------  --- ----------   -----  -----  ----  ---  ---  ----  ----  ----  ----  ----                                   
 19 JUN    0 Start Sim        0   0.00   0.0    0  0.0  0.00  0.00  0.00  0.00     7
 19 JUL    0 Sowing           0   0.00   0.0    0  0.0  0.00  0.00  0.00  0.00     8
 20 JUL    1 Germinate        0   0.00   0.0    0  0.0  0.00  0.00  0.00  0.00     9
 24 JUL    5 Emergence       25   0.00   2.1    1  4.4  0.00  0.01  0.00  0.00     1
  3 AUG   15 End Juveni      95   0.21   6.9    3  3.2  0.00  0.00  0.00  0.00     2
 10 AUG   22 Floral Ini     319   0.56  10.0    6  2.0  0.21  0.15  0.00  0.00     3
 11 SEP   54 75% Silkin    2559   1.07  20.9   62  2.4  0.50  0.13  0.00  0.00     4
 19 SEP   62 Beg Gr Fil    2595   0.76  20.9   62  2.4  0.88  0.00  0.00  0.00     5
 28 OCT  101 End Gr Fil    4091   0.70  20.9   62  1.5  0.06  0.00  0.00  0.00     6
 31 OCT  104 Maturity      4091   0.70  20.9   62  1.5  0.00  0.00  0.00  0.00    10
 31 OCT  104 Harvest       4091   0.70  20.9   62  1.5  0.00  0.00  0.00  0.00    10


*MAIN GROWTH AND DEVELOPMENT VARIABLES

@     VARIABLE                                         SIMULATED     MEASURED
      --------                                         ---------     --------
      Anthesis day (dap)                                      54          -99
      Physiological maturity day (dap)                       104          -99
      Yield at harvest maturity (kg [dm]/ha)                1326          -99
      Number at maturity (no/m2)                             530          -99
      Unit wt at maturity (g [dm]/unit)                   0.2502          -99
      Number at maturity (no/unit)                          97.1          -99
      Tops weight at maturity (kg [dm]/ha)                  4091          -99
      By-product produced (stalk) at maturity (kg[dm]/ha    2800          -99
      Leaf area index, maximum                              1.60          -99
      Harvest index at maturity                            0.324          -99
      Grain N at maturity (kg/ha)                             23          -99
      Tops N at maturity (kg/ha)                              62          -99
      Stem N at maturity (kg/ha)                              36          -99
      Grain N at maturity (%)                                1.7          -99
      Tops weight at anthesis (kg [dm]/ha)                  2547          -99
      Tops N at anthesis (kg/ha)                              62          -99
      Leaf number per stem at maturity                     20.93          -99
      Emergence day (dap)                                      5          -99


*ENVIRONMENTAL AND STRESS FACTORS

 |-----Development Phase------|--------------------------------------Environment--------------------------------------|-----------------Stress-----------------|
                              |---------------Average--------------|-----Cumulative-----|--------Count of days--------|          (0=Min, 1=Max Stress)         |
                         Time  Temp  Temp  Temp Solar Photop                Evapo    Pot TMIN TMIN TMAX TMAX TMAX RAIN|----Water----|---Nitrogen--|-Phosphorus-|
                         Span   Max   Min  Mean   Rad  [day]    CO2   Rain  Trans     ET   <    <    >    >    >    >   Photo         Photo         Photo
                         days    邂    邂    邂 MJ/m2     hr    ppm     mm     mm     mm  0邂  2邂 30邂 32邂 34邂  0mm  synth Growth  synth Growth  synth Growth
----------------------------------------------------------------------------------------------------------------------------------------------------------------
 Emergence-End Juvenile    10  34.7  20.9  27.8  19.8  24.00  347.2    0.0    3.9   57.7    0    0   10   10    8    0  0.000  0.000  0.002  0.005  0.000  0.000
 End Juvenil-Floral Init    7  35.9  22.3  29.1  21.2  24.00  347.2    0.0    9.7   44.2    0    0    7    7    7    0  0.014  0.149  0.036  0.089  0.000  0.000
 Floral Init-End Lf Grow   32  34.5  22.4  28.5  20.0  21.84  347.3   48.3   74.8  179.1    0    0   32   26   18    9  0.403  0.483  0.080  0.148  0.000  0.000
 End Lf Grth-Beg Grn Fil    8  36.6  24.0  30.3  20.2  14.16  347.4    0.4    6.5   49.9    0    0    8    8    7    1  0.820  0.880  0.000  0.000  0.000  0.000
 Grain Filling Phase       39  30.9  21.6  26.3  18.0   5.17  347.5  323.5  169.9  189.3    0    0   24    9    5   30  0.066  0.078  0.000  0.000  0.000  0.000


 Planting to Harvest      104  33.2  21.9  27.6  19.1  14.83  347.4  374.1  276.1  560.3    0    0   85   64   47   42  0.213  0.256  0.027  0.052  0.000  0.000
----------------------------------------------------------------------------------------------------------------------------------------------------------------


*Resource Productivity
 Growing season length: 104 days 

 Precipitation during growing season       374.1 mm[rain]
   Dry Matter Productivity                  1.09 kg[DM]/m3[rain]          =   10.9 kg[DM]/ha per mm[rain]
   Yield Productivity                       0.35 kg[grain yield]/m3[rain] =    3.5 kg[yield]/ha per mm[rain]

 Evapotranspiration during growing season  276.1 mm[ET]
   Dry Matter Productivity                  1.48 kg[DM]/m3[ET]            =   14.8 kg[DM]/ha per mm[ET]
   Yield Productivity                       0.48 kg[grain yield]/m3[ET]   =    4.8 kg[yield]/ha per mm[ET]

 Transpiration during growing season       135.2 mm[EP]
   Dry Matter Productivity                  3.03 kg[DM]/m3[EP]            =   30.3 kg[DM]/ha per mm[EP]
   Yield Productivity                       0.98 kg[grain yield]/m3[EP]   =    9.8 kg[yield]/ha per mm[EP]

 N applied during growing season            162. kg[N applied]/ha
   Dry Matter Productivity                  25.3 kg[DM]/kg[N applied]
   Yield Productivity                        8.2 kg[yield]/kg[N applied]

 N uptake during growing season               68 kg[N uptake]/ha
   Dry Matter Productivity                  60.2 kg[DM]/kg[N uptake]
   Yield Productivity                       19.5 kg[yield]/kg[N uptake]

--------------------------------------------------------------------------------------------------------------

                     Maize YIELD :     1326 kg/ha    [Dry weight] 

**************************************************************************************************************

*DSSAT Cropping System Model Ver. 4.6.1.000 -release      OCT 24, 2017; 10:56:57
                                                                                
*RUN   3        : P07/24                    MZCER046 ANES1986    3              
 MODEL          : MZCER046 - Maize                                              
 EXPERIMENT     : ANES1986 MZ  Analisis a침os de bajo rendimiento Espinal       
 DATA PATH      : C:\DSSAT46\maize\                                             
 TREATMENT  3   : P07/24                    MZCER046                            
                                                                                
                                                                                
 CROP           : Maize            CULTIVAR : P30F35           ECOTYPE :IB0001  
 STARTING DATE  : JUN 24 1986                                                   
 PLANTING DATE  : JUL 24 1986        PLANTS/m2 :  6.2     ROW SPACING :  80.cm  
 WEATHER        : CNAT   1986                                                   
 SOIL           : CCESPI2017     TEXTURE : SL    -   Suelo Espinal Calibraci    
 SOIL INITIAL C : DEPTH:100cm EXTR. H2O: 83.6mm  NO3:  0.0kg/ha  NH4:  0.0kg/ha 
 WATER BALANCE  : RAINFED                                                       
 IRRIGATION     : NOT IRRIGATED                                                 
 NITROGEN BAL.  : SOIL-N & N-UPTAKE SIMULATION; NO N-FIXATION                   
 N-FERTILIZER   :      162 kg/ha IN     6 APPLICATIONS                          
 RESIDUE/MANURE : INITIAL :     0 kg/ha ;       0 kg/ha IN     0 APPLICATIONS   
 ENVIRONM. OPT. : DAYL=    0.00  SRAD=    0.00  TMAX=    0.00  TMIN=    0.00    
                  RAIN=    0.00  CO2 =    0.00  DEW =    0.00  WIND=    0.00    
 SIMULATION OPT : WATER   :Y  NITROGEN:Y  N-FIX:N  PHOSPH :N  PESTS  :N         
                  PHOTO   :C  ET      :R  INFIL:S  HYDROL :R  SOM    :G         
                  CO2 347ppm  NSWIT   :1  EVAP :S  SOIL   :2  STEMP  :D         
 MANAGEMENT OPT : PLANTING:R  IRRIG   :N  FERT :D  RESIDUE:R  HARVEST:M         
                  WEATHER :M  TILLAGE :N                                        
                                                                                
*SUMMARY OF SOIL AND GENETIC INPUT PARAMETERS                                   
                                                                                
   SOIL LOWER UPPER   SAT  EXTR  INIT   ROOT   BULK     pH    NO3    NH4    ORG 
  DEPTH LIMIT LIMIT    SW    SW    SW   DIST   DENS                          C  
   cm   cm3/cm3    cm3/cm3    cm3/cm3         g/cm3         ugN/g  ugN/g     %  
------------------------------------------------------------------------------- 
  0-  5 0.160 0.252 0.376 0.092 0.252   1.00   1.69   6.60   0.00   0.00   0.45 
  5- 15 0.160 0.252 0.376 0.092 0.252   1.00   1.69   6.60   0.00   0.00   0.45 
 15- 30 0.160 0.252 0.376 0.092 0.252   1.00   1.69   6.60   0.00   0.00   0.45 
 30- 53 0.120 0.200 0.440 0.080 0.200   0.27   1.40   7.10   0.00   0.00   0.17 
 53- 77 0.120 0.200 0.440 0.080 0.200   0.27   1.40   7.10   0.00   0.00   0.17 
 77-100 0.120 0.200 0.440 0.080 0.200   0.27   1.40   7.10   0.00   0.00   0.17 
                                                                                
TOT-100  13.2  21.6  42.1   8.4  21.6  <--cm   -  kg/ha-->    0.0    0.0  39475 
SOIL ALBEDO    : 0.09      EVAPORATION LIMIT : 6.00         MIN. FACTOR  : 1.00 
RUNOFF CURVE # :76.00      DRAINAGE RATE     : 0.60         FERT. FACTOR : 1.00 
                                                                                
 Maize      CULTIVAR :CI0001-P30F35             ECOTYPE :IB0001                 
 P1     : 200.00  P2     : 0.3000  P5     : 925.00                              
 G2     : 954.00  G3     :  7.000  PHINT  : 50.000                              


*SIMULATED CROP AND SOIL STATUS AT MAIN DEVELOPMENT STAGES

 RUN NO.     3     P07/24                  

        CROP GROWTH     BIOMASS         LEAF   CROP N     STRESS      STRESS                                           
   DATE  AGE STAGE        kg/ha    LAI   NUM  kg/ha  %   H2O  Nitr Phos1 Phos2  RSTG                                   
 ------  --- ----------   -----  -----  ----  ---  ---  ----  ----  ----  ----  ----                                   
 24 JUN    0 Start Sim        0   0.00   0.0    0  0.0  0.00  0.00  0.00  0.00     7
 24 JUL    0 Sowing           0   0.00   0.0    0  0.0  0.00  0.00  0.00  0.00     8
 25 JUL    1 Germinate        0   0.00   0.0    0  0.0  0.00  0.00  0.00  0.00     9
 29 JUL    5 Emergence       25   0.00   2.1    1  4.4  0.00  0.01  0.00  0.00     1
  7 AUG   14 End Juveni      75   0.17   6.6    3  3.4  0.03  0.00  0.00  0.00     2
 14 AUG   21 Floral Ini     282   0.51   9.6    6  2.2  0.13  0.08  0.00  0.00     3
 14 SEP   52 75% Silkin    2122   0.92  20.2   53  2.5  0.56  0.05  0.00  0.00     4
 22 SEP   60 Beg Gr Fil    2124   0.65  20.2   53  2.5  0.90  0.00  0.00  0.00     5
  1 NOV  100 End Gr Fil    3540   0.65  20.2   53  1.5  0.00  0.00  0.00  0.00     6
  3 NOV  102 Maturity      3540   0.65  20.2   53  1.5  0.00  0.00  0.00  0.00    10
  3 NOV  102 Harvest       3540   0.65  20.2   53  1.5  0.00  0.00  0.00  0.00    10


*MAIN GROWTH AND DEVELOPMENT VARIABLES

@     VARIABLE                                         SIMULATED     MEASURED
      --------                                         ---------     --------
      Anthesis day (dap)                                      52          -99
      Physiological maturity day (dap)                       102          -99
      Yield at harvest maturity (kg [dm]/ha)                1206          -99
      Number at maturity (no/m2)                             447          -99
      Unit wt at maturity (g [dm]/unit)                   0.2697          -99
      Number at maturity (no/unit)                          85.5          -99
      Tops weight at maturity (kg [dm]/ha)                  3540          -99
      By-product produced (stalk) at maturity (kg[dm]/ha    2366          -99
      Leaf area index, maximum                              1.53          -99
      Harvest index at maturity                            0.341          -99
      Grain N at maturity (kg/ha)                             21          -99
      Tops N at maturity (kg/ha)                              53          -99
      Stem N at maturity (kg/ha)                              29          -99
      Grain N at maturity (%)                                1.7          -99
      Tops weight at anthesis (kg [dm]/ha)                  2118          -99
      Tops N at anthesis (kg/ha)                              53          -99
      Leaf number per stem at maturity                     20.15          -99
      Emergence day (dap)                                      5          -99


*ENVIRONMENTAL AND STRESS FACTORS

 |-----Development Phase------|--------------------------------------Environment--------------------------------------|-----------------Stress-----------------|
                              |---------------Average--------------|-----Cumulative-----|--------Count of days--------|          (0=Min, 1=Max Stress)         |
                         Time  Temp  Temp  Temp Solar Photop                Evapo    Pot TMIN TMIN TMAX TMAX TMAX RAIN|----Water----|---Nitrogen--|-Phosphorus-|
                         Span   Max   Min  Mean   Rad  [day]    CO2   Rain  Trans     ET   <    <    >    >    >    >   Photo         Photo         Photo
                         days    邂    邂    邂 MJ/m2     hr    ppm     mm     mm     mm  0邂  2邂 30邂 32邂 34邂  0mm  synth Growth  synth Growth  synth Growth
----------------------------------------------------------------------------------------------------------------------------------------------------------------
 Emergence-End Juvenile     9  35.0  21.5  28.2  19.4  24.00  347.2    0.0    3.0   51.4    0    0    9    9    8    0  0.000  0.003  0.002  0.006  0.000  0.000
 End Juvenil-Floral Init    7  35.8  21.6  28.7  19.4  24.00  347.2    0.0    7.4   41.3    0    0    7    7    6    0  0.000  0.087  0.013  0.034  0.000  0.000
 Floral Init-End Lf Grow   31  34.5  22.6  28.5  19.9  20.91  347.3   48.3   69.3  173.2    0    0   31   25   17    9  0.484  0.549  0.024  0.058  0.000  0.000
 End Lf Grth-Beg Grn Fil    8  36.9  24.6  30.7  21.4  13.11  347.4    4.3    5.5   53.3    0    0    8    8    8    3  0.856  0.905  0.000  0.000  0.000  0.000
 Grain Filling Phase       40  30.4  21.2  25.8  18.0   4.12  347.5  321.5  179.6  192.7    0    0   22    6    2   30  0.020  0.022  0.000  0.000  0.000  0.000


 Planting to Harvest      102  33.2  22.0  27.6  19.1  13.94  347.4  374.4  270.9  550.7    0    0   84   61   45   43  0.222  0.253  0.008  0.020  0.000  0.000
----------------------------------------------------------------------------------------------------------------------------------------------------------------


*Resource Productivity
 Growing season length: 102 days 

 Precipitation during growing season       374.4 mm[rain]
   Dry Matter Productivity                  0.95 kg[DM]/m3[rain]          =    9.5 kg[DM]/ha per mm[rain]
   Yield Productivity                       0.32 kg[grain yield]/m3[rain] =    3.2 kg[yield]/ha per mm[rain]

 Evapotranspiration during growing season  270.9 mm[ET]
   Dry Matter Productivity                  1.31 kg[DM]/m3[ET]            =   13.1 kg[DM]/ha per mm[ET]
   Yield Productivity                       0.45 kg[grain yield]/m3[ET]   =    4.5 kg[yield]/ha per mm[ET]

 Transpiration during growing season       123.6 mm[EP]
   Dry Matter Productivity                  2.86 kg[DM]/m3[EP]            =   28.6 kg[DM]/ha per mm[EP]
   Yield Productivity                       0.98 kg[grain yield]/m3[EP]   =    9.8 kg[yield]/ha per mm[EP]

 N applied during growing season            162. kg[N applied]/ha
   Dry Matter Productivity                  21.9 kg[DM]/kg[N applied]
   Yield Productivity                        7.4 kg[yield]/kg[N applied]

 N uptake during growing season               59 kg[N uptake]/ha
   Dry Matter Productivity                  60.0 kg[DM]/kg[N uptake]
   Yield Productivity                       20.4 kg[yield]/kg[N uptake]

--------------------------------------------------------------------------------------------------------------

                     Maize YIELD :     1206 kg/ha    [Dry weight] 

**************************************************************************************************************

*DSSAT Cropping System Model Ver. 4.6.1.000 -release      OCT 24, 2017; 10:56:57
                                                                                
*RUN   4        : P07/29                    MZCER046 ANES1986    4              
 MODEL          : MZCER046 - Maize                                              
 EXPERIMENT     : ANES1986 MZ  Analisis a침os de bajo rendimiento Espinal       
 DATA PATH      : C:\DSSAT46\maize\                                             
 TREATMENT  4   : P07/29                    MZCER046                            
                                                                                
                                                                                
 CROP           : Maize            CULTIVAR : P30F35           ECOTYPE :IB0001  
 STARTING DATE  : JUN 29 1986                                                   
 PLANTING DATE  : JUL 29 1986        PLANTS/m2 :  6.2     ROW SPACING :  80.cm  
 WEATHER        : CNAT   1986                                                   
 SOIL           : CCESPI2017     TEXTURE : SL    -   Suelo Espinal Calibraci    
 SOIL INITIAL C : DEPTH:100cm EXTR. H2O: 83.6mm  NO3:  0.0kg/ha  NH4:  0.0kg/ha 
 WATER BALANCE  : RAINFED                                                       
 IRRIGATION     : NOT IRRIGATED                                                 
 NITROGEN BAL.  : SOIL-N & N-UPTAKE SIMULATION; NO N-FIXATION                   
 N-FERTILIZER   :      162 kg/ha IN     6 APPLICATIONS                          
 RESIDUE/MANURE : INITIAL :     0 kg/ha ;       0 kg/ha IN     0 APPLICATIONS   
 ENVIRONM. OPT. : DAYL=    0.00  SRAD=    0.00  TMAX=    0.00  TMIN=    0.00    
                  RAIN=    0.00  CO2 =    0.00  DEW =    0.00  WIND=    0.00    
 SIMULATION OPT : WATER   :Y  NITROGEN:Y  N-FIX:N  PHOSPH :N  PESTS  :N         
                  PHOTO   :C  ET      :R  INFIL:S  HYDROL :R  SOM    :G         
                  CO2 347ppm  NSWIT   :1  EVAP :S  SOIL   :2  STEMP  :D         
 MANAGEMENT OPT : PLANTING:R  IRRIG   :N  FERT :D  RESIDUE:R  HARVEST:M         
                  WEATHER :M  TILLAGE :N                                        
                                                                                
*SUMMARY OF SOIL AND GENETIC INPUT PARAMETERS                                   
                                                                                
   SOIL LOWER UPPER   SAT  EXTR  INIT   ROOT   BULK     pH    NO3    NH4    ORG 
  DEPTH LIMIT LIMIT    SW    SW    SW   DIST   DENS                          C  
   cm   cm3/cm3    cm3/cm3    cm3/cm3         g/cm3         ugN/g  ugN/g     %  
------------------------------------------------------------------------------- 
  0-  5 0.160 0.252 0.376 0.092 0.252   1.00   1.69   6.60   0.00   0.00   0.45 
  5- 15 0.160 0.252 0.376 0.092 0.252   1.00   1.69   6.60   0.00   0.00   0.45 
 15- 30 0.160 0.252 0.376 0.092 0.252   1.00   1.69   6.60   0.00   0.00   0.45 
 30- 53 0.120 0.200 0.440 0.080 0.200   0.27   1.40   7.10   0.00   0.00   0.17 
 53- 77 0.120 0.200 0.440 0.080 0.200   0.27   1.40   7.10   0.00   0.00   0.17 
 77-100 0.120 0.200 0.440 0.080 0.200   0.27   1.40   7.10   0.00   0.00   0.17 
                                                                                
TOT-100  13.2  21.6  42.1   8.4  21.6  <--cm   -  kg/ha-->    0.0    0.0  39475 
SOIL ALBEDO    : 0.09      EVAPORATION LIMIT : 6.00         MIN. FACTOR  : 1.00 
RUNOFF CURVE # :76.00      DRAINAGE RATE     : 0.60         FERT. FACTOR : 1.00 
                                                                                
 Maize      CULTIVAR :CI0001-P30F35             ECOTYPE :IB0001                 
 P1     : 200.00  P2     : 0.3000  P5     : 925.00                              
 G2     : 954.00  G3     :  7.000  PHINT  : 50.000                              


*SIMULATED CROP AND SOIL STATUS AT MAIN DEVELOPMENT STAGES

 RUN NO.     4     P07/29                  

        CROP GROWTH     BIOMASS         LEAF   CROP N     STRESS      STRESS                                           
   DATE  AGE STAGE        kg/ha    LAI   NUM  kg/ha  %   H2O  Nitr Phos1 Phos2  RSTG                                   
 ------  --- ----------   -----  -----  ----  ---  ---  ----  ----  ----  ----  ----                                   
 29 JUN    0 Start Sim        0   0.00   0.0    0  0.0  0.00  0.00  0.00  0.00     7
 29 JUL    0 Sowing           0   0.00   0.0    0  0.0  0.00  0.00  0.00  0.00     8
 30 JUL    1 Germinate        0   0.00   0.0    0  0.0  0.00  0.00  0.00  0.00     9
  3 AUG    5 Emergence       25   0.00   2.2    1  4.4  0.00  0.01  0.00  0.00     1
 12 AUG   14 End Juveni      83   0.18   6.7    3  3.1  0.02  0.00  0.00  0.00     2
 19 AUG   21 Floral Ini     300   0.55   9.6   11  3.6  0.08  0.00  0.00  0.00     3
 18 SEP   51 75% Silkin    1625   0.74  19.9   42  2.6  0.66  0.00  0.00  0.00     4
 27 SEP   60 Beg Gr Fil    2088   0.63  19.9   42  2.0  0.39  0.00  0.00  0.00     5
  6 NOV  100 End Gr Fil    4639   0.63  19.9   61  1.3  0.00  0.00  0.00  0.00     6
  8 NOV  102 Maturity      4639   0.63  19.9   61  1.3  0.00  0.00  0.00  0.00    10
  8 NOV  102 Harvest       4639   0.63  19.9   61  1.3  0.00  0.00  0.00  0.00    10


*MAIN GROWTH AND DEVELOPMENT VARIABLES

@     VARIABLE                                         SIMULATED     MEASURED
      --------                                         ---------     --------
      Anthesis day (dap)                                      51          -99
      Physiological maturity day (dap)                       102          -99
      Yield at harvest maturity (kg [dm]/ha)                2616          -99
      Number at maturity (no/m2)                             949          -99
      Unit wt at maturity (g [dm]/unit)                   0.2758          -99
      Number at maturity (no/unit)                         153.0          -99
      Tops weight at maturity (kg [dm]/ha)                  4639          -99
      By-product produced (stalk) at maturity (kg[dm]/ha    2051          -99
      Leaf area index, maximum                              1.29          -99
      Harvest index at maturity                            0.564          -99
      Grain N at maturity (kg/ha)                             45          -99
      Tops N at maturity (kg/ha)                              61          -99
      Stem N at maturity (kg/ha)                              16          -99
      Grain N at maturity (%)                                1.7          -99
      Tops weight at anthesis (kg [dm]/ha)                  1620          -99
      Tops N at anthesis (kg/ha)                              42          -99
      Leaf number per stem at maturity                     19.90          -99
      Emergence day (dap)                                      5          -99


*ENVIRONMENTAL AND STRESS FACTORS

 |-----Development Phase------|--------------------------------------Environment--------------------------------------|-----------------Stress-----------------|
                              |---------------Average--------------|-----Cumulative-----|--------Count of days--------|          (0=Min, 1=Max Stress)         |
                         Time  Temp  Temp  Temp Solar Photop                Evapo    Pot TMIN TMIN TMAX TMAX TMAX RAIN|----Water----|---Nitrogen--|-Phosphorus-|
                         Span   Max   Min  Mean   Rad  [day]    CO2   Rain  Trans     ET   <    <    >    >    >    >   Photo         Photo         Photo
                         days    邂    邂    邂 MJ/m2     hr    ppm     mm     mm     mm  0邂  2邂 30邂 32邂 34邂  0mm  synth Growth  synth Growth  synth Growth
----------------------------------------------------------------------------------------------------------------------------------------------------------------
 Emergence-End Juvenile     9  36.1  22.3  29.2  20.7  24.00  347.2    0.0    3.0   57.7    0    0    9    9    9    0  0.000  0.024  0.002  0.005  0.000  0.000
 End Juvenil-Floral Init    7  33.1  21.6  27.4  16.0  24.00  347.3   19.1   10.6   31.4    0    0    7    4    2    2  0.018  0.080  0.001  0.003  0.000  0.000
 Floral Init-End Lf Grow   30  35.1  23.0  29.1  20.9  19.44  347.3   29.6   62.0  181.2    0    0   30   27   20    8  0.568  0.631  0.000  0.000  0.000  0.000
 End Lf Grth-Beg Grn Fil    9  34.6  23.4  29.0  19.4  11.57  347.4   86.0   25.0   50.8    0    0    9    8    5    6  0.465  0.495  0.000  0.000  0.000  0.000
 Grain Filling Phase       40  30.2  21.1  25.7  17.6   2.76  347.5  260.6  168.3  187.9    0    0   20    3    1   29  0.000  0.000  0.000  0.000  0.000  0.000


 Planting to Harvest      102  33.0  22.0  27.5  18.9  12.76  347.4  395.7  277.2  544.4    0    0   80   56   41   46  0.209  0.237  0.000  0.001  0.000  0.000
----------------------------------------------------------------------------------------------------------------------------------------------------------------


*Resource Productivity
 Growing season length: 102 days 

 Precipitation during growing season       395.7 mm[rain]
   Dry Matter Productivity                  1.17 kg[DM]/m3[rain]          =   11.7 kg[DM]/ha per mm[rain]
   Yield Productivity                       0.66 kg[grain yield]/m3[rain] =    6.6 kg[yield]/ha per mm[rain]

 Evapotranspiration during growing season  277.2 mm[ET]
   Dry Matter Productivity                  1.67 kg[DM]/m3[ET]            =   16.7 kg[DM]/ha per mm[ET]
   Yield Productivity                       0.94 kg[grain yield]/m3[ET]   =    9.4 kg[yield]/ha per mm[ET]

 Transpiration during growing season       119.0 mm[EP]
   Dry Matter Productivity                  3.90 kg[DM]/m3[EP]            =   39.0 kg[DM]/ha per mm[EP]
   Yield Productivity                       2.20 kg[grain yield]/m3[EP]   =   22.0 kg[yield]/ha per mm[EP]

 N applied during growing season            162. kg[N applied]/ha
   Dry Matter Productivity                  28.6 kg[DM]/kg[N applied]
   Yield Productivity                       16.1 kg[yield]/kg[N applied]

 N uptake during growing season               72 kg[N uptake]/ha
   Dry Matter Productivity                  64.4 kg[DM]/kg[N uptake]
   Yield Productivity                       36.3 kg[yield]/kg[N uptake]

--------------------------------------------------------------------------------------------------------------

                     Maize YIELD :     2616 kg/ha    [Dry weight] 

**************************************************************************************************************

*DSSAT Cropping System Model Ver. 4.6.1.000 -release      OCT 24, 2017; 10:56:57
                                                                                
*RUN   5        : P08/03                    MZCER046 ANES1986    5              
 MODEL          : MZCER046 - Maize                                              
 EXPERIMENT     : ANES1986 MZ  Analisis a침os de bajo rendimiento Espinal       
 DATA PATH      : C:\DSSAT46\maize\                                             
 TREATMENT  5   : P08/03                    MZCER046                            
                                                                                
                                                                                
 CROP           : Maize            CULTIVAR : P30F35           ECOTYPE :IB0001  
 STARTING DATE  : JUL  4 1986                                                   
 PLANTING DATE  : AUG  3 1986        PLANTS/m2 :  6.2     ROW SPACING :  80.cm  
 WEATHER        : CNAT   1986                                                   
 SOIL           : CCESPI2017     TEXTURE : SL    -   Suelo Espinal Calibraci    
 SOIL INITIAL C : DEPTH:100cm EXTR. H2O: 83.6mm  NO3:  0.0kg/ha  NH4:  0.0kg/ha 
 WATER BALANCE  : RAINFED                                                       
 IRRIGATION     : NOT IRRIGATED                                                 
 NITROGEN BAL.  : SOIL-N & N-UPTAKE SIMULATION; NO N-FIXATION                   
 N-FERTILIZER   :      162 kg/ha IN     6 APPLICATIONS                          
 RESIDUE/MANURE : INITIAL :     0 kg/ha ;       0 kg/ha IN     0 APPLICATIONS   
 ENVIRONM. OPT. : DAYL=    0.00  SRAD=    0.00  TMAX=    0.00  TMIN=    0.00    
                  RAIN=    0.00  CO2 =    0.00  DEW =    0.00  WIND=    0.00    
 SIMULATION OPT : WATER   :Y  NITROGEN:Y  N-FIX:N  PHOSPH :N  PESTS  :N         
                  PHOTO   :C  ET      :R  INFIL:S  HYDROL :R  SOM    :G         
                  CO2 347ppm  NSWIT   :1  EVAP :S  SOIL   :2  STEMP  :D         
 MANAGEMENT OPT : PLANTING:R  IRRIG   :N  FERT :D  RESIDUE:R  HARVEST:M         
                  WEATHER :M  TILLAGE :N                                        
                                                                                
*SUMMARY OF SOIL AND GENETIC INPUT PARAMETERS                                   
                                                                                
   SOIL LOWER UPPER   SAT  EXTR  INIT   ROOT   BULK     pH    NO3    NH4    ORG 
  DEPTH LIMIT LIMIT    SW    SW    SW   DIST   DENS                          C  
   cm   cm3/cm3    cm3/cm3    cm3/cm3         g/cm3         ugN/g  ugN/g     %  
------------------------------------------------------------------------------- 
  0-  5 0.160 0.252 0.376 0.092 0.252   1.00   1.69   6.60   0.00   0.00   0.45 
  5- 15 0.160 0.252 0.376 0.092 0.252   1.00   1.69   6.60   0.00   0.00   0.45 
 15- 30 0.160 0.252 0.376 0.092 0.252   1.00   1.69   6.60   0.00   0.00   0.45 
 30- 53 0.120 0.200 0.440 0.080 0.200   0.27   1.40   7.10   0.00   0.00   0.17 
 53- 77 0.120 0.200 0.440 0.080 0.200   0.27   1.40   7.10   0.00   0.00   0.17 
 77-100 0.120 0.200 0.440 0.080 0.200   0.27   1.40   7.10   0.00   0.00   0.17 
                                                                                
TOT-100  13.2  21.6  42.1   8.4  21.6  <--cm   -  kg/ha-->    0.0    0.0  39475 
SOIL ALBEDO    : 0.09      EVAPORATION LIMIT : 6.00         MIN. FACTOR  : 1.00 
RUNOFF CURVE # :76.00      DRAINAGE RATE     : 0.60         FERT. FACTOR : 1.00 
                                                                                
 Maize      CULTIVAR :CI0001-P30F35             ECOTYPE :IB0001                 
 P1     : 200.00  P2     : 0.3000  P5     : 925.00                              
 G2     : 954.00  G3     :  7.000  PHINT  : 50.000                              


*SIMULATED CROP AND SOIL STATUS AT MAIN DEVELOPMENT STAGES

 RUN NO.     5     P08/03                  

        CROP GROWTH     BIOMASS         LEAF   CROP N     STRESS      STRESS                                           
   DATE  AGE STAGE        kg/ha    LAI   NUM  kg/ha  %   H2O  Nitr Phos1 Phos2  RSTG                                   
 ------  --- ----------   -----  -----  ----  ---  ---  ----  ----  ----  ----  ----                                   
  4 JUL    0 Start Sim        0   0.00   0.0    0  0.0  0.00  0.00  0.00  0.00     7
  3 AUG    0 Sowing           0   0.00   0.0    0  0.0  0.00  0.00  0.00  0.00     8
  4 AUG    1 Germinate        0   0.00   0.0    0  0.0  0.00  0.00  0.00  0.00     9
  8 AUG    5 Emergence       25   0.00   2.1    1  4.4  0.00  0.01  0.00  0.00     1
 17 AUG   14 End Juveni      71   0.16   6.5    2  3.4  0.02  0.00  0.00  0.00     2
 23 AUG   20 Floral Ini     256   0.48   9.0    9  3.6  0.00  0.00  0.00  0.00     3
 21 SEP   49 75% Silkin    1355   0.65  18.7   36  2.7  0.68  0.00  0.00  0.00     4
 30 SEP   58 Beg Gr Fil    2014   0.62  18.7   36  1.8  0.10  0.00  0.00  0.00     5
  9 NOV   98 End Gr Fil    5050   0.59  18.7   67  1.3  0.00  0.00  0.00  0.00     6
 11 NOV  100 Maturity      5050   0.59  18.7   67  1.3  0.00  0.00  0.00  0.00    10
 11 NOV  100 Harvest       5050   0.59  18.7   67  1.3  0.00  0.00  0.00  0.00    10


*MAIN GROWTH AND DEVELOPMENT VARIABLES

@     VARIABLE                                         SIMULATED     MEASURED
      --------                                         ---------     --------
      Anthesis day (dap)                                      49          -99
      Physiological maturity day (dap)                       100          -99
      Yield at harvest maturity (kg [dm]/ha)                3117          -99
      Number at maturity (no/m2)                            1130          -99
      Unit wt at maturity (g [dm]/unit)                   0.2758          -99
      Number at maturity (no/unit)                         182.3          -99
      Tops weight at maturity (kg [dm]/ha)                  5050          -99
      By-product produced (stalk) at maturity (kg[dm]/ha    1958          -99
      Leaf area index, maximum                              1.23          -99
      Harvest index at maturity                            0.617          -99
      Grain N at maturity (kg/ha)                             54          -99
      Tops N at maturity (kg/ha)                              67          -99
      Stem N at maturity (kg/ha)                              13          -99
      Grain N at maturity (%)                                1.7          -99
      Tops weight at anthesis (kg [dm]/ha)                  1347          -99
      Tops N at anthesis (kg/ha)                              36          -99
      Leaf number per stem at maturity                     18.68          -99
      Emergence day (dap)                                      5          -99


*ENVIRONMENTAL AND STRESS FACTORS

 |-----Development Phase------|--------------------------------------Environment--------------------------------------|-----------------Stress-----------------|
                              |---------------Average--------------|-----Cumulative-----|--------Count of days--------|          (0=Min, 1=Max Stress)         |
                         Time  Temp  Temp  Temp Solar Photop                Evapo    Pot TMIN TMIN TMAX TMAX TMAX RAIN|----Water----|---Nitrogen--|-Phosphorus-|
                         Span   Max   Min  Mean   Rad  [day]    CO2   Rain  Trans     ET   <    <    >    >    >    >   Photo         Photo         Photo
                         days    邂    邂    邂 MJ/m2     hr    ppm     mm     mm     mm  0邂  2邂 30邂 32邂 34邂  0mm  synth Growth  synth Growth  synth Growth
----------------------------------------------------------------------------------------------------------------------------------------------------------------
 Emergence-End Juvenile     9  34.8  21.8  28.3  17.5  24.00  347.2    0.7    2.5   47.9    0    0    9    7    6    1  0.000  0.000  0.002  0.005  0.000  0.000
 End Juvenil-Floral Init    6  32.9  21.7  27.3  19.7  24.00  347.3   29.6   21.9   33.8    0    0    6    4    1    4  0.000  0.034  0.000  0.001  0.000  0.000
 Floral Init-End Lf Grow   29  35.6  23.3  29.5  21.0  18.11  347.3   18.6   51.6  180.2    0    0   29   27   22    6  0.583  0.647  0.000  0.000  0.000  0.000
 End Lf Grth-Beg Grn Fil    9  31.5  21.6  26.6  16.8  10.54  347.4  114.9   33.0   41.3    0    0    6    5    2    8  0.182  0.195  0.000  0.000  0.000  0.000
 Grain Filling Phase       40  30.4  21.3  25.8  17.7   2.05  347.5  231.9  169.4  189.6    0    0   21    3    1   27  0.000  0.000  0.000  0.000  0.000  0.000


 Planting to Harvest      100  32.8  22.1  27.5  18.8  11.82  347.4  395.7  284.8  534.5    0    0   78   51   37   46  0.185  0.207  0.000  0.000  0.000  0.000
----------------------------------------------------------------------------------------------------------------------------------------------------------------


*Resource Productivity
 Growing season length: 100 days 

 Precipitation during growing season       395.7 mm[rain]
   Dry Matter Productivity                  1.28 kg[DM]/m3[rain]          =   12.8 kg[DM]/ha per mm[rain]
   Yield Productivity                       0.79 kg[grain yield]/m3[rain] =    7.9 kg[yield]/ha per mm[rain]

 Evapotranspiration during growing season  284.8 mm[ET]
   Dry Matter Productivity                  1.77 kg[DM]/m3[ET]            =   17.7 kg[DM]/ha per mm[ET]
   Yield Productivity                       1.09 kg[grain yield]/m3[ET]   =   10.9 kg[yield]/ha per mm[ET]

 Transpiration during growing season       118.5 mm[EP]
   Dry Matter Productivity                  4.26 kg[DM]/m3[EP]            =   42.6 kg[DM]/ha per mm[EP]
   Yield Productivity                       2.63 kg[grain yield]/m3[EP]   =   26.3 kg[yield]/ha per mm[EP]

 N applied during growing season            162. kg[N applied]/ha
   Dry Matter Productivity                  31.2 kg[DM]/kg[N applied]
   Yield Productivity                       19.2 kg[yield]/kg[N applied]

 N uptake during growing season               76 kg[N uptake]/ha
   Dry Matter Productivity                  66.4 kg[DM]/kg[N uptake]
   Yield Productivity                       41.0 kg[yield]/kg[N uptake]

--------------------------------------------------------------------------------------------------------------

                     Maize YIELD :     3117 kg/ha    [Dry weight] 

**************************************************************************************************************

*DSSAT Cropping System Model Ver. 4.6.1.000 -release      OCT 24, 2017; 10:56:57
                                                                                
*RUN   6        : P08/08                    MZCER046 ANES1986    6              
 MODEL          : MZCER046 - Maize                                              
 EXPERIMENT     : ANES1986 MZ  Analisis a침os de bajo rendimiento Espinal       
 DATA PATH      : C:\DSSAT46\maize\                                             
 TREATMENT  6   : P08/08                    MZCER046                            
                                                                                
                                                                                
 CROP           : Maize            CULTIVAR : P30F35           ECOTYPE :IB0001  
 STARTING DATE  : JUL  9 1986                                                   
 PLANTING DATE  : AUG  8 1986        PLANTS/m2 :  6.2     ROW SPACING :  80.cm  
 WEATHER        : CNAT   1986                                                   
 SOIL           : CCESPI2017     TEXTURE : SL    -   Suelo Espinal Calibraci    
 SOIL INITIAL C : DEPTH:100cm EXTR. H2O: 83.6mm  NO3:  0.0kg/ha  NH4:  0.0kg/ha 
 WATER BALANCE  : RAINFED                                                       
 IRRIGATION     : NOT IRRIGATED                                                 
 NITROGEN BAL.  : SOIL-N & N-UPTAKE SIMULATION; NO N-FIXATION                   
 N-FERTILIZER   :      162 kg/ha IN     6 APPLICATIONS                          
 RESIDUE/MANURE : INITIAL :     0 kg/ha ;       0 kg/ha IN     0 APPLICATIONS   
 ENVIRONM. OPT. : DAYL=    0.00  SRAD=    0.00  TMAX=    0.00  TMIN=    0.00    
                  RAIN=    0.00  CO2 =    0.00  DEW =    0.00  WIND=    0.00    
 SIMULATION OPT : WATER   :Y  NITROGEN:Y  N-FIX:N  PHOSPH :N  PESTS  :N         
                  PHOTO   :C  ET      :R  INFIL:S  HYDROL :R  SOM    :G         
                  CO2 347ppm  NSWIT   :1  EVAP :S  SOIL   :2  STEMP  :D         
 MANAGEMENT OPT : PLANTING:R  IRRIG   :N  FERT :D  RESIDUE:R  HARVEST:M         
                  WEATHER :M  TILLAGE :N                                        
                                                                                
*SUMMARY OF SOIL AND GENETIC INPUT PARAMETERS                                   
                                                                                
   SOIL LOWER UPPER   SAT  EXTR  INIT   ROOT   BULK     pH    NO3    NH4    ORG 
  DEPTH LIMIT LIMIT    SW    SW    SW   DIST   DENS                          C  
   cm   cm3/cm3    cm3/cm3    cm3/cm3         g/cm3         ugN/g  ugN/g     %  
------------------------------------------------------------------------------- 
  0-  5 0.160 0.252 0.376 0.092 0.252   1.00   1.69   6.60   0.00   0.00   0.45 
  5- 15 0.160 0.252 0.376 0.092 0.252   1.00   1.69   6.60   0.00   0.00   0.45 
 15- 30 0.160 0.252 0.376 0.092 0.252   1.00   1.69   6.60   0.00   0.00   0.45 
 30- 53 0.120 0.200 0.440 0.080 0.200   0.27   1.40   7.10   0.00   0.00   0.17 
 53- 77 0.120 0.200 0.440 0.080 0.200   0.27   1.40   7.10   0.00   0.00   0.17 
 77-100 0.120 0.200 0.440 0.080 0.200   0.27   1.40   7.10   0.00   0.00   0.17 
                                                                                
TOT-100  13.2  21.6  42.1   8.4  21.6  <--cm   -  kg/ha-->    0.0    0.0  39475 
SOIL ALBEDO    : 0.09      EVAPORATION LIMIT : 6.00         MIN. FACTOR  : 1.00 
RUNOFF CURVE # :76.00      DRAINAGE RATE     : 0.60         FERT. FACTOR : 1.00 
                                                                                
 Maize      CULTIVAR :CI0001-P30F35             ECOTYPE :IB0001                 
 P1     : 200.00  P2     : 0.3000  P5     : 925.00                              
 G2     : 954.00  G3     :  7.000  PHINT  : 50.000                              


*SIMULATED CROP AND SOIL STATUS AT MAIN DEVELOPMENT STAGES

 RUN NO.     6     P08/08                  

        CROP GROWTH     BIOMASS         LEAF   CROP N     STRESS      STRESS                                           
   DATE  AGE STAGE        kg/ha    LAI   NUM  kg/ha  %   H2O  Nitr Phos1 Phos2  RSTG                                   
 ------  --- ----------   -----  -----  ----  ---  ---  ----  ----  ----  ----  ----                                   
  9 JUL    0 Start Sim        0   0.00   0.0    0  0.0  0.00  0.00  0.00  0.00     7
  8 AUG    0 Sowing           0   0.00   0.0    0  0.0  0.00  0.00  0.00  0.00     8
  9 AUG    1 Germinate        0   0.00   0.0    0  0.0  0.00  0.00  0.00  0.00     9
 13 AUG    5 Emergence       25   0.00   2.1    1  4.4  0.00  0.01  0.00  0.00     1
 23 AUG   15 End Juveni      89   0.19   6.8    3  3.1  0.00  0.00  0.00  0.00     2
 29 AUG   21 Floral Ini     312   0.57   9.4   11  3.6  0.00  0.00  0.00  0.00     3
 28 SEP   51 75% Silkin    1713   0.77  19.6   36  2.1  0.57  0.00  0.00  0.00     4
  8 OCT   61 Beg Gr Fil    2890   0.77  19.6   38  1.3  0.00  0.00  0.00  0.00     5
 16 NOV  100 End Gr Fil    7045   0.59  19.6   91  1.3  0.00  0.00  0.00  0.00     6
 18 NOV  102 Maturity      7045   0.59  19.6   91  1.3  0.00  0.00  0.00  0.00    10
 18 NOV  102 Harvest       7045   0.59  19.6   91  1.3  0.00  0.00  0.00  0.00    10


*MAIN GROWTH AND DEVELOPMENT VARIABLES

@     VARIABLE                                         SIMULATED     MEASURED
      --------                                         ---------     --------
      Anthesis day (dap)                                      51          -99
      Physiological maturity day (dap)                       102          -99
      Yield at harvest maturity (kg [dm]/ha)                4267          -99
      Number at maturity (no/m2)                            1604          -99
      Unit wt at maturity (g [dm]/unit)                   0.2660          -99
      Number at maturity (no/unit)                         258.7          -99
      Tops weight at maturity (kg [dm]/ha)                  7045          -99
      By-product produced (stalk) at maturity (kg[dm]/ha    2802          -99
      Leaf area index, maximum                              1.05          -99
      Harvest index at maturity                            0.606          -99
      Grain N at maturity (kg/ha)                             74          -99
      Tops N at maturity (kg/ha)                              91          -99
      Stem N at maturity (kg/ha)                              17          -99
      Grain N at maturity (%)                                1.7          -99
      Tops weight at anthesis (kg [dm]/ha)                  1626          -99
      Tops N at anthesis (kg/ha)                              35          -99
      Leaf number per stem at maturity                     19.64          -99
      Emergence day (dap)                                      5          -99


*ENVIRONMENTAL AND STRESS FACTORS

 |-----Development Phase------|--------------------------------------Environment--------------------------------------|-----------------Stress-----------------|
                              |---------------Average--------------|-----Cumulative-----|--------Count of days--------|          (0=Min, 1=Max Stress)         |
                         Time  Temp  Temp  Temp Solar Photop                Evapo    Pot TMIN TMIN TMAX TMAX TMAX RAIN|----Water----|---Nitrogen--|-Phosphorus-|
                         Span   Max   Min  Mean   Rad  [day]    CO2   Rain  Trans     ET   <    <    >    >    >    >   Photo         Photo         Photo
                         days    邂    邂    邂 MJ/m2     hr    ppm     mm     mm     mm  0邂  2邂 30邂 32邂 34邂  0mm  synth Growth  synth Growth  synth Growth
----------------------------------------------------------------------------------------------------------------------------------------------------------------
 Emergence-End Juvenile    10  32.9  21.8  27.3  17.8  24.00  347.3   30.3   20.5   51.7    0    0   10    6    2    5  0.000  0.000  0.002  0.005  0.000  0.000
 End Juvenil-Floral Init    6  35.1  22.4  28.7  23.0  24.00  347.3    7.4   16.7   41.8    0    0    6    6    4    2  0.000  0.000  0.001  0.003  0.000  0.000
 Floral Init-End Lf Grow   30  35.0  23.2  29.1  19.8  15.25  347.4  107.6   60.2  174.9    0    0   29   26   20   10  0.515  0.573  0.000  0.000  0.000  0.000
 End Lf Grth-Beg Grn Fil   10  30.5  20.9  25.7  17.9   7.77  347.4  115.3   47.6   47.6    0    0    6    2    1    8  0.000  0.000  0.000  0.000  0.000  0.000
 Grain Filling Phase       39  30.6  21.6  26.1  17.7   0.59  347.6  135.1  148.4  183.3    0    0   22    5    0   21  0.000  0.000  0.000  0.000  0.000  0.000


 Planting to Harvest      102  32.7  22.1  27.4  18.8  10.41  347.4  395.7  299.5  542.8    0    0   80   52   33   46  0.151  0.169  0.000  0.001  0.000  0.000
----------------------------------------------------------------------------------------------------------------------------------------------------------------


*Resource Productivity
 Growing season length: 102 days 

 Precipitation during growing season       395.7 mm[rain]
   Dry Matter Productivity                  1.78 kg[DM]/m3[rain]          =   17.8 kg[DM]/ha per mm[rain]
   Yield Productivity                       1.08 kg[grain yield]/m3[rain] =   10.8 kg[yield]/ha per mm[rain]

 Evapotranspiration during growing season  299.5 mm[ET]
   Dry Matter Productivity                  2.35 kg[DM]/m3[ET]            =   23.5 kg[DM]/ha per mm[ET]
   Yield Productivity                       1.42 kg[grain yield]/m3[ET]   =   14.2 kg[yield]/ha per mm[ET]

 Transpiration during growing season       138.8 mm[EP]
   Dry Matter Productivity                  5.08 kg[DM]/m3[EP]            =   50.8 kg[DM]/ha per mm[EP]
   Yield Productivity                       3.08 kg[grain yield]/m3[EP]   =   30.8 kg[yield]/ha per mm[EP]

 N applied during growing season            162. kg[N applied]/ha
   Dry Matter Productivity                  43.5 kg[DM]/kg[N applied]
   Yield Productivity                       26.3 kg[yield]/kg[N applied]

 N uptake during growing season               99 kg[N uptake]/ha
   Dry Matter Productivity                  71.2 kg[DM]/kg[N uptake]
   Yield Productivity                       43.1 kg[yield]/kg[N uptake]

--------------------------------------------------------------------------------------------------------------

                     Maize YIELD :     4267 kg/ha    [Dry weight] 

**************************************************************************************************************

*DSSAT Cropping System Model Ver. 4.6.1.000 -release      OCT 24, 2017; 10:56:57
                                                                                
*RUN   7        : P08/13                    MZCER046 ANES1986    7              
 MODEL          : MZCER046 - Maize                                              
 EXPERIMENT     : ANES1986 MZ  Analisis a침os de bajo rendimiento Espinal       
 DATA PATH      : C:\DSSAT46\maize\                                             
 TREATMENT  7   : P08/13                    MZCER046                            
                                                                                
                                                                                
 CROP           : Maize            CULTIVAR : P30F35           ECOTYPE :IB0001  
 STARTING DATE  : JUL 14 1986                                                   
 PLANTING DATE  : AUG 13 1986        PLANTS/m2 :  6.2     ROW SPACING :  80.cm  
 WEATHER        : CNAT   1986                                                   
 SOIL           : CCESPI2017     TEXTURE : SL    -   Suelo Espinal Calibraci    
 SOIL INITIAL C : DEPTH:100cm EXTR. H2O: 83.6mm  NO3:  0.0kg/ha  NH4:  0.0kg/ha 
 WATER BALANCE  : RAINFED                                                       
 IRRIGATION     : NOT IRRIGATED                                                 
 NITROGEN BAL.  : SOIL-N & N-UPTAKE SIMULATION; NO N-FIXATION                   
 N-FERTILIZER   :      162 kg/ha IN     6 APPLICATIONS                          
 RESIDUE/MANURE : INITIAL :     0 kg/ha ;       0 kg/ha IN     0 APPLICATIONS   
 ENVIRONM. OPT. : DAYL=    0.00  SRAD=    0.00  TMAX=    0.00  TMIN=    0.00    
                  RAIN=    0.00  CO2 =    0.00  DEW =    0.00  WIND=    0.00    
 SIMULATION OPT : WATER   :Y  NITROGEN:Y  N-FIX:N  PHOSPH :N  PESTS  :N         
                  PHOTO   :C  ET      :R  INFIL:S  HYDROL :R  SOM    :G         
                  CO2 347ppm  NSWIT   :1  EVAP :S  SOIL   :2  STEMP  :D         
 MANAGEMENT OPT : PLANTING:R  IRRIG   :N  FERT :D  RESIDUE:R  HARVEST:M         
                  WEATHER :M  TILLAGE :N                                        
                                                                                
*SUMMARY OF SOIL AND GENETIC INPUT PARAMETERS                                   
                                                                                
   SOIL LOWER UPPER   SAT  EXTR  INIT   ROOT   BULK     pH    NO3    NH4    ORG 
  DEPTH LIMIT LIMIT    SW    SW    SW   DIST   DENS                          C  
   cm   cm3/cm3    cm3/cm3    cm3/cm3         g/cm3         ugN/g  ugN/g     %  
------------------------------------------------------------------------------- 
  0-  5 0.160 0.252 0.376 0.092 0.252   1.00   1.69   6.60   0.00   0.00   0.45 
  5- 15 0.160 0.252 0.376 0.092 0.252   1.00   1.69   6.60   0.00   0.00   0.45 
 15- 30 0.160 0.252 0.376 0.092 0.252   1.00   1.69   6.60   0.00   0.00   0.45 
 30- 53 0.120 0.200 0.440 0.080 0.200   0.27   1.40   7.10   0.00   0.00   0.17 
 53- 77 0.120 0.200 0.440 0.080 0.200   0.27   1.40   7.10   0.00   0.00   0.17 
 77-100 0.120 0.200 0.440 0.080 0.200   0.27   1.40   7.10   0.00   0.00   0.17 
                                                                                
TOT-100  13.2  21.6  42.1   8.4  21.6  <--cm   -  kg/ha-->    0.0    0.0  39475 
SOIL ALBEDO    : 0.09      EVAPORATION LIMIT : 6.00         MIN. FACTOR  : 1.00 
RUNOFF CURVE # :76.00      DRAINAGE RATE     : 0.60         FERT. FACTOR : 1.00 
                                                                                
 Maize      CULTIVAR :CI0001-P30F35             ECOTYPE :IB0001                 
 P1     : 200.00  P2     : 0.3000  P5     : 925.00                              
 G2     : 954.00  G3     :  7.000  PHINT  : 50.000                              


*SIMULATED CROP AND SOIL STATUS AT MAIN DEVELOPMENT STAGES

 RUN NO.     7     P08/13                  

        CROP GROWTH     BIOMASS         LEAF   CROP N     STRESS      STRESS                                           
   DATE  AGE STAGE        kg/ha    LAI   NUM  kg/ha  %   H2O  Nitr Phos1 Phos2  RSTG                                   
 ------  --- ----------   -----  -----  ----  ---  ---  ----  ----  ----  ----  ----                                   
 14 JUL    0 Start Sim        0   0.00   0.0    0  0.0  0.00  0.00  0.00  0.00     7
 13 AUG    0 Sowing           0   0.00   0.0    0  0.0  0.00  0.00  0.00  0.00     8
 14 AUG    1 Germinate        0   0.00   0.0    0  0.0  0.00  0.00  0.00  0.00     9
 18 AUG    5 Emergence       25   0.00   2.1    1  4.4  0.00  0.01  0.00  0.00     1
 28 AUG   15 End Juveni      98   0.21   6.9    3  3.1  0.00  0.00  0.00  0.00     2
  2 SEP   20 Floral Ini     275   0.51   9.1   10  3.6  0.01  0.00  0.00  0.00     3
  2 OCT   50 75% Silkin    1961   0.85  18.9   40  2.0  0.49  0.00  0.00  0.00     4
 11 OCT   59 Beg Gr Fil    3109   0.85  18.9   41  1.3  0.00  0.00  0.00  0.00     5
 19 NOV   98 End Gr Fil    7541   0.53  18.9   97  1.3  0.00  0.00  0.00  0.00     6
 21 NOV  100 Maturity      7541   0.53  18.9   97  1.3  0.00  0.00  0.00  0.00    10
 21 NOV  100 Harvest       7541   0.53  18.9   97  1.3  0.00  0.00  0.00  0.00    10


*MAIN GROWTH AND DEVELOPMENT VARIABLES

@     VARIABLE                                         SIMULATED     MEASURED
      --------                                         ---------     --------
      Anthesis day (dap)                                      50          -99
      Physiological maturity day (dap)                       100          -99
      Yield at harvest maturity (kg [dm]/ha)                4539          -99
      Number at maturity (no/m2)                            1726          -99
      Unit wt at maturity (g [dm]/unit)                   0.2630          -99
      Number at maturity (no/unit)                         278.3          -99
      Tops weight at maturity (kg [dm]/ha)                  7541          -99
      By-product produced (stalk) at maturity (kg[dm]/ha    3024          -99
      Leaf area index, maximum                              0.85          -99
      Harvest index at maturity                            0.602          -99
      Grain N at maturity (kg/ha)                             79          -99
      Tops N at maturity (kg/ha)                              97          -99
      Stem N at maturity (kg/ha)                              19          -99
      Grain N at maturity (%)                                1.7          -99
      Tops weight at anthesis (kg [dm]/ha)                  1856          -99
      Tops N at anthesis (kg/ha)                              39          -99
      Leaf number per stem at maturity                     18.91          -99
      Emergence day (dap)                                      5          -99


*ENVIRONMENTAL AND STRESS FACTORS

 |-----Development Phase------|--------------------------------------Environment--------------------------------------|-----------------Stress-----------------|
                              |---------------Average--------------|-----Cumulative-----|--------Count of days--------|          (0=Min, 1=Max Stress)         |
                         Time  Temp  Temp  Temp Solar Photop                Evapo    Pot TMIN TMIN TMAX TMAX TMAX RAIN|----Water----|---Nitrogen--|-Phosphorus-|
                         Span   Max   Min  Mean   Rad  [day]    CO2   Rain  Trans     ET   <    <    >    >    >    >   Photo         Photo         Photo
                         days    邂    邂    邂 MJ/m2     hr    ppm     mm     mm     mm  0邂  2邂 30邂 32邂 34邂  0mm  synth Growth  synth Growth  synth Growth
----------------------------------------------------------------------------------------------------------------------------------------------------------------
 Emergence-End Juvenile    10  33.7  22.1  27.9  21.3  24.00  347.3   18.6   28.6   64.1    0    0   10    8    4    5  0.000  0.000  0.002  0.006  0.000  0.000
 End Juvenil-Floral Init    5  35.1  23.7  29.4  21.3  21.91  347.3    8.4    9.2   32.3    0    0    5    4    4    1  0.000  0.014  0.002  0.004  0.000  0.000
 Floral Init-End Lf Grow   30  34.5  22.8  28.6  19.3  13.59  347.4  131.4   73.3  171.4    0    0   27   24   18   12  0.433  0.489  0.000  0.000  0.000  0.000
 End Lf Grth-Beg Grn Fil    9  30.4  21.2  25.8  18.2   6.28  347.4   83.9   43.2   43.2    0    0    6    1    0    7  0.000  0.000  0.000  0.000  0.000  0.000
 Grain Filling Phase       39  30.8  21.8  26.3  17.9   0.21  347.6  136.3  142.6  184.9    0    0   23    7    1   20  0.000  0.000  0.000  0.000  0.000  0.000


 Planting to Harvest      100  32.5  22.1  27.3  18.8   9.42  347.5  397.7  303.1  530.6    0    0   78   48   28   47  0.130  0.147  0.000  0.001  0.000  0.000
----------------------------------------------------------------------------------------------------------------------------------------------------------------


*Resource Productivity
 Growing season length: 100 days 

 Precipitation during growing season       397.7 mm[rain]
   Dry Matter Productivity                  1.90 kg[DM]/m3[rain]          =   19.0 kg[DM]/ha per mm[rain]
   Yield Productivity                       1.14 kg[grain yield]/m3[rain] =   11.4 kg[yield]/ha per mm[rain]

 Evapotranspiration during growing season  303.1 mm[ET]
   Dry Matter Productivity                  2.49 kg[DM]/m3[ET]            =   24.9 kg[DM]/ha per mm[ET]
   Yield Productivity                       1.50 kg[grain yield]/m3[ET]   =   15.0 kg[yield]/ha per mm[ET]

 Transpiration during growing season       143.2 mm[EP]
   Dry Matter Productivity                  5.27 kg[DM]/m3[EP]            =   52.7 kg[DM]/ha per mm[EP]
   Yield Productivity                       3.17 kg[grain yield]/m3[EP]   =   31.7 kg[yield]/ha per mm[EP]

 N applied during growing season            162. kg[N applied]/ha
   Dry Matter Productivity                  46.5 kg[DM]/kg[N applied]
   Yield Productivity                       28.0 kg[yield]/kg[N applied]

 N uptake during growing season              105 kg[N uptake]/ha
   Dry Matter Productivity                  71.8 kg[DM]/kg[N uptake]
   Yield Productivity                       43.2 kg[yield]/kg[N uptake]

--------------------------------------------------------------------------------------------------------------

                     Maize YIELD :     4539 kg/ha    [Dry weight] 

**************************************************************************************************************

*DSSAT Cropping System Model Ver. 4.6.1.000 -release      OCT 24, 2017; 10:56:58
                                                                                
*RUN   8        : P08/18                    MZCER046 ANES1986    8              
 MODEL          : MZCER046 - Maize                                              
 EXPERIMENT     : ANES1986 MZ  Analisis a침os de bajo rendimiento Espinal       
 DATA PATH      : C:\DSSAT46\maize\                                             
 TREATMENT  8   : P08/18                    MZCER046                            
                                                                                
                                                                                
 CROP           : Maize            CULTIVAR : P30F35           ECOTYPE :IB0001  
 STARTING DATE  : JUL 19 1986                                                   
 PLANTING DATE  : AUG 18 1986        PLANTS/m2 :  6.2     ROW SPACING :  80.cm  
 WEATHER        : CNAT   1986                                                   
 SOIL           : CCESPI2017     TEXTURE : SL    -   Suelo Espinal Calibraci    
 SOIL INITIAL C : DEPTH:100cm EXTR. H2O: 83.6mm  NO3:  0.0kg/ha  NH4:  0.0kg/ha 
 WATER BALANCE  : RAINFED                                                       
 IRRIGATION     : NOT IRRIGATED                                                 
 NITROGEN BAL.  : SOIL-N & N-UPTAKE SIMULATION; NO N-FIXATION                   
 N-FERTILIZER   :      162 kg/ha IN     6 APPLICATIONS                          
 RESIDUE/MANURE : INITIAL :     0 kg/ha ;       0 kg/ha IN     0 APPLICATIONS   
 ENVIRONM. OPT. : DAYL=    0.00  SRAD=    0.00  TMAX=    0.00  TMIN=    0.00    
                  RAIN=    0.00  CO2 =    0.00  DEW =    0.00  WIND=    0.00    
 SIMULATION OPT : WATER   :Y  NITROGEN:Y  N-FIX:N  PHOSPH :N  PESTS  :N         
                  PHOTO   :C  ET      :R  INFIL:S  HYDROL :R  SOM    :G         
                  CO2 347ppm  NSWIT   :1  EVAP :S  SOIL   :2  STEMP  :D         
 MANAGEMENT OPT : PLANTING:R  IRRIG   :N  FERT :D  RESIDUE:R  HARVEST:M         
                  WEATHER :M  TILLAGE :N                                        
                                                                                
*SUMMARY OF SOIL AND GENETIC INPUT PARAMETERS                                   
                                                                                
   SOIL LOWER UPPER   SAT  EXTR  INIT   ROOT   BULK     pH    NO3    NH4    ORG 
  DEPTH LIMIT LIMIT    SW    SW    SW   DIST   DENS                          C  
   cm   cm3/cm3    cm3/cm3    cm3/cm3         g/cm3         ugN/g  ugN/g     %  
------------------------------------------------------------------------------- 
  0-  5 0.160 0.252 0.376 0.092 0.252   1.00   1.69   6.60   0.00   0.00   0.45 
  5- 15 0.160 0.252 0.376 0.092 0.252   1.00   1.69   6.60   0.00   0.00   0.45 
 15- 30 0.160 0.252 0.376 0.092 0.252   1.00   1.69   6.60   0.00   0.00   0.45 
 30- 53 0.120 0.200 0.440 0.080 0.200   0.27   1.40   7.10   0.00   0.00   0.17 
 53- 77 0.120 0.200 0.440 0.080 0.200   0.27   1.40   7.10   0.00   0.00   0.17 
 77-100 0.120 0.200 0.440 0.080 0.200   0.27   1.40   7.10   0.00   0.00   0.17 
                                                                                
TOT-100  13.2  21.6  42.1   8.4  21.6  <--cm   -  kg/ha-->    0.0    0.0  39475 
SOIL ALBEDO    : 0.09      EVAPORATION LIMIT : 6.00         MIN. FACTOR  : 1.00 
RUNOFF CURVE # :76.00      DRAINAGE RATE     : 0.60         FERT. FACTOR : 1.00 
                                                                                
 Maize      CULTIVAR :CI0001-P30F35             ECOTYPE :IB0001                 
 P1     : 200.00  P2     : 0.3000  P5     : 925.00                              
 G2     : 954.00  G3     :  7.000  PHINT  : 50.000                              


*SIMULATED CROP AND SOIL STATUS AT MAIN DEVELOPMENT STAGES

 RUN NO.     8     P08/18                  

        CROP GROWTH     BIOMASS         LEAF   CROP N     STRESS      STRESS                                           
   DATE  AGE STAGE        kg/ha    LAI   NUM  kg/ha  %   H2O  Nitr Phos1 Phos2  RSTG                                   
 ------  --- ----------   -----  -----  ----  ---  ---  ----  ----  ----  ----  ----                                   
 19 JUL    0 Start Sim        0   0.00   0.0    0  0.0  0.00  0.00  0.00  0.00     7
 18 AUG    0 Sowing           0   0.00   0.0    0  0.0  0.00  0.00  0.00  0.00     8
 19 AUG    1 Germinate        0   0.00   0.0    0  0.0  0.00  0.00  0.00  0.00     9
 23 AUG    5 Emergence       25   0.00   2.2    1  4.4  0.00  0.01  0.00  0.00     1
  1 SEP   14 End Juveni      83   0.18   6.7    3  3.2  0.01  0.00  0.00  0.00     2
  6 SEP   19 Floral Ini     242   0.46   8.8    9  3.7  0.00  0.00  0.00  0.00     3
  6 OCT   49 75% Silkin    2170   0.89  18.4   43  2.0  0.42  0.00  0.00  0.00     4
 15 OCT   58 Beg Gr Fil    3298   0.89  18.4   43  1.3  0.00  0.00  0.00  0.00     5
 22 NOV   96 End Gr Fil    7606   0.51  18.4   97  1.3  0.00  0.00  0.00  0.00     6
 25 NOV   99 Maturity      7606   0.51  18.4   97  1.3  0.00  0.00  0.00  0.00    10
 25 NOV   99 Harvest       7606   0.51  18.4   97  1.3  0.00  0.00  0.00  0.00    10


*MAIN GROWTH AND DEVELOPMENT VARIABLES

@     VARIABLE                                         SIMULATED     MEASURED
      --------                                         ---------     --------
      Anthesis day (dap)                                      49          -99
      Physiological maturity day (dap)                        99          -99
      Yield at harvest maturity (kg [dm]/ha)                4430          -99
      Number at maturity (no/m2)                            1739          -99
[...]
 WATER BALANCE  : RAINFED                                                       
 IRRIGATION     : NOT IRRIGATED                                                 
 NITROGEN BAL.  : SOIL-N & N-UPTAKE SIMULATION; NO N-FIXATION                   
 N-FERTILIZER   :      162 kg/ha IN     6 APPLICATIONS                          
 RESIDUE/MANURE : INITIAL :     0 kg/ha ;       0 kg/ha IN     0 APPLICATIONS   
 ENVIRONM. OPT. : DAYL=    0.00  SRAD=    0.00  TMAX=    0.00  TMIN=    0.00    
                  RAIN=    0.00  CO2 =    0.00  DEW =    0.00  WIND=    0.00    
 SIMULATION OPT : WATER   :Y  NITROGEN:Y  N-FIX:N  PHOSPH :N  PESTS  :N         
                  PHOTO   :C  ET      :R  INFIL:S  HYDROL :R  SOM    :G         
                  CO2 348ppm  NSWIT   :1  EVAP :S  SOIL   :2  STEMP  :D         
 MANAGEMENT OPT : PLANTING:R  IRRIG   :N  FERT :D  RESIDUE:R  HARVEST:M         
                  WEATHER :M  TILLAGE :N                                        
                                                                                
*SUMMARY OF SOIL AND GENETIC INPUT PARAMETERS                                   
                                                                                
   SOIL LOWER UPPER   SAT  EXTR  INIT   ROOT   BULK     pH    NO3    NH4    ORG 
  DEPTH LIMIT LIMIT    SW    SW    SW   DIST   DENS                          C  
   cm   cm3/cm3    cm3/cm3    cm3/cm3         g/cm3         ugN/g  ugN/g     %  
------------------------------------------------------------------------------- 
  0-  5 0.160 0.252 0.376 0.092 0.252   1.00   1.69   6.60   0.00   0.00   0.45 
  5- 15 0.160 0.252 0.376 0.092 0.252   1.00   1.69   6.60   0.00   0.00   0.45 
 15- 30 0.160 0.252 0.376 0.092 0.252   1.00   1.69   6.60   0.00   0.00   0.45 
 30- 53 0.120 0.200 0.440 0.080 0.200   0.27   1.40   7.10   0.00   0.00   0.17 
 53- 77 0.120 0.200 0.440 0.080 0.200   0.27   1.40   7.10   0.00   0.00   0.17 
 77-100 0.120 0.200 0.440 0.080 0.200   0.27   1.40   7.10   0.00   0.00   0.17 
                                                                                
TOT-100  13.2  21.6  42.1   8.4  21.6  <--cm   -  kg/ha-->    0.0    0.0  39475 
SOIL ALBEDO    : 0.09      EVAPORATION LIMIT : 6.00         MIN. FACTOR  : 1.00 
RUNOFF CURVE # :76.00      DRAINAGE RATE     : 0.60         FERT. FACTOR : 1.00 
                                                                                
 Maize      CULTIVAR :CI0001-P30F35             ECOTYPE :IB0001                 
 P1     : 200.00  P2     : 0.3000  P5     : 925.00                              
 G2     : 954.00  G3     :  7.000  PHINT  : 50.000                              


*SIMULATED CROP AND SOIL STATUS AT MAIN DEVELOPMENT STAGES

 RUN NO.    31     P11/26                  

        CROP GROWTH     BIOMASS         LEAF   CROP N     STRESS      STRESS                                           
   DATE  AGE STAGE        kg/ha    LAI   NUM  kg/ha  %   H2O  Nitr Phos1 Phos2  RSTG                                   
 ------  --- ----------   -----  -----  ----  ---  ---  ----  ----  ----  ----  ----                                   
 26 NOV    0 Start Sim        0   0.00   0.0    0  0.0  0.00  0.00  0.00  0.00     7
 26 DEC    0 Sowing           0   0.00   0.0    0  0.0  0.00  0.00  0.00  0.00     8
 27 DEC    1 Germinate        0   0.00   0.0    0  0.0  0.00  0.00  0.00  0.00     9
 31 DEC    5 Emergence       25   0.00   2.1    1  4.4  0.00  0.01  0.00  0.00     1
 10 JAN   15 End Juveni      88   0.19   6.8    3  3.2  0.00  0.00  0.00  0.00     2
 14 JAN   19 Floral Ini     200   0.39   8.5    5  2.3  0.00  0.07  0.00  0.00     3
 10 FEB   46 75% Silkin    1316   0.53  17.5    9  0.7  0.45  0.72  0.00  0.00     4
 19 FEB   55 Beg Gr Fil    1860   0.49  17.5   28  1.5  0.16  0.18  0.00  0.00     5
 25 MAR   89 End Gr Fil    3521   0.47  17.5   44  1.2  0.03  0.00  0.00  0.00     6
 27 MAR   91 Maturity      3521   0.47  17.5   44  1.2  0.00  0.00  0.00  0.00    10
 27 MAR   91 Harvest       3521   0.47  17.5   44  1.2  0.00  0.00  0.00  0.00    10


*MAIN GROWTH AND DEVELOPMENT VARIABLES

@     VARIABLE                                         SIMULATED     MEASURED
      --------                                         ---------     --------
      Anthesis day (dap)                                      46          -99
      Physiological maturity day (dap)                        91          -99
      Yield at harvest maturity (kg [dm]/ha)                1721          -99
      Number at maturity (no/m2)                             994          -99
      Unit wt at maturity (g [dm]/unit)                   0.1731          -99
      Number at maturity (no/unit)                         160.3          -99
      Tops weight at maturity (kg [dm]/ha)                  3521          -99
      By-product produced (stalk) at maturity (kg[dm]/ha    1820          -99
      Leaf area index, maximum                              0.72          -99
      Harvest index at maturity                            0.489          -99
      Grain N at maturity (kg/ha)                             31          -99
      Tops N at maturity (kg/ha)                              44          -99
      Stem N at maturity (kg/ha)                              13          -99
      Grain N at maturity (%)                                1.8          -99
      Tops weight at anthesis (kg [dm]/ha)                  1297          -99
      Tops N at anthesis (kg/ha)                               9          -99
      Leaf number per stem at maturity                     17.49          -99
      Emergence day (dap)                                      5          -99


*ENVIRONMENTAL AND STRESS FACTORS

 |-----Development Phase------|--------------------------------------Environment--------------------------------------|-----------------Stress-----------------|
                              |---------------Average--------------|-----Cumulative-----|--------Count of days--------|          (0=Min, 1=Max Stress)         |
                         Time  Temp  Temp  Temp Solar Photop                Evapo    Pot TMIN TMIN TMAX TMAX TMAX RAIN|----Water----|---Nitrogen--|-Phosphorus-|
                         Span   Max   Min  Mean   Rad  [day]    CO2   Rain  Trans     ET   <    <    >    >    >    >   Photo         Photo         Photo
                         days    邂    邂    邂 MJ/m2     hr    ppm     mm     mm     mm  0邂  2邂 30邂 32邂 34邂  0mm  synth Growth  synth Growth  synth Growth
----------------------------------------------------------------------------------------------------------------------------------------------------------------
 Emergence-End Juvenile    10  32.1  23.1  27.6  18.8   0.00  347.8   36.2   25.4   54.8    0    0    9    5    0    3  0.000  0.000  0.002  0.005  0.000  0.000
 End Juvenil-Floral Init    4  33.6  22.7  28.2  20.9   0.00  347.8    0.0    5.3   23.9    0    0    4    4    1    0  0.000  0.000  0.007  0.017  0.000  0.000
 Floral Init-End Lf Grow   27  35.1  23.7  29.4  19.6   0.00  348.0    2.8   41.1  154.9    0    0   27   26   19    3  0.313  0.423  0.451  0.695  0.000  0.000
 End Lf Grth-Beg Grn Fil    9  32.6  23.2  27.9  16.5   0.00  348.1   80.7   23.7   42.0    0    0    7    6    3    4  0.186  0.235  0.198  0.276  0.000  0.000
 Grain Filling Phase       34  34.2  23.8  29.0  20.5   5.93  348.2   86.6  101.7  205.3    0    0   30   28   19    9  0.007  0.030  0.000  0.000  0.000  0.000


 Planting to Harvest       91  34.0  23.5  28.7  19.7   2.50  348.0  219.8  214.2  522.0    0    0   83   74   44   21  0.114  0.160  0.154  0.235  0.000  0.000
----------------------------------------------------------------------------------------------------------------------------------------------------------------


*Resource Productivity
 Growing season length:  91 days 

 Precipitation during growing season       219.8 mm[rain]
   Dry Matter Productivity                  1.60 kg[DM]/m3[rain]          =   16.0 kg[DM]/ha per mm[rain]
   Yield Productivity                       0.78 kg[grain yield]/m3[rain] =    7.8 kg[yield]/ha per mm[rain]

 Evapotranspiration during growing season  214.2 mm[ET]
   Dry Matter Productivity                  1.64 kg[DM]/m3[ET]            =   16.4 kg[DM]/ha per mm[ET]
   Yield Productivity                       0.80 kg[grain yield]/m3[ET]   =    8.0 kg[yield]/ha per mm[ET]

 Transpiration during growing season       110.8 mm[EP]
   Dry Matter Productivity                  3.18 kg[DM]/m3[EP]            =   31.8 kg[DM]/ha per mm[EP]
   Yield Productivity                       1.55 kg[grain yield]/m3[EP]   =   15.5 kg[yield]/ha per mm[EP]

 N applied during growing season            162. kg[N applied]/ha
   Dry Matter Productivity                  21.7 kg[DM]/kg[N applied]
   Yield Productivity                       10.6 kg[yield]/kg[N applied]

 N uptake during growing season               52 kg[N uptake]/ha
   Dry Matter Productivity                  67.7 kg[DM]/kg[N uptake]
   Yield Productivity                       33.1 kg[yield]/kg[N uptake]

--------------------------------------------------------------------------------------------------------------

                     Maize YIELD :     1721 kg/ha    [Dry weight] 

**************************************************************************************************************

*DSSAT Cropping System Model Ver. 4.6.1.000 -release      OCT 24, 2017; 10:57:10
                                                                                
*RUN  32        : P12/31                    MZCER046 ANES1986   32              
 MODEL          : MZCER046 - Maize                                              
 EXPERIMENT     : ANES1986 MZ  Analisis a침os de bajo rendimiento Espinal       
 DATA PATH      : C:\DSSAT46\maize\                                             
 TREATMENT 32   : P12/31                    MZCER046                            
                                                                                
                                                                                
 CROP           : Maize            CULTIVAR : P30F35           ECOTYPE :IB0001  
 STARTING DATE  : DEC  1 1986                                                   
 PLANTING DATE  : DEC 31 1986        PLANTS/m2 :  6.2     ROW SPACING :  80.cm  
 WEATHER        : CNAT   1986                                                   
 SOIL           : CCESPI2017     TEXTURE : SL    -   Suelo Espinal Calibraci    
 SOIL INITIAL C : DEPTH:100cm EXTR. H2O: 83.6mm  NO3:  0.0kg/ha  NH4:  0.0kg/ha 
 WATER BALANCE  : RAINFED                                                       
 IRRIGATION     : NOT IRRIGATED                                                 
 NITROGEN BAL.  : SOIL-N & N-UPTAKE SIMULATION; NO N-FIXATION                   
 N-FERTILIZER   :      162 kg/ha IN     6 APPLICATIONS                          
 RESIDUE/MANURE : INITIAL :     0 kg/ha ;       0 kg/ha IN     0 APPLICATIONS   
 ENVIRONM. OPT. : DAYL=    0.00  SRAD=    0.00  TMAX=    0.00  TMIN=    0.00    
                  RAIN=    0.00  CO2 =    0.00  DEW =    0.00  WIND=    0.00    
 SIMULATION OPT : WATER   :Y  NITROGEN:Y  N-FIX:N  PHOSPH :N  PESTS  :N         
                  PHOTO   :C  ET      :R  INFIL:S  HYDROL :R  SOM    :G         
                  CO2 348ppm  NSWIT   :1  EVAP :S  SOIL   :2  STEMP  :D         
 MANAGEMENT OPT : PLANTING:R  IRRIG   :N  FERT :D  RESIDUE:R  HARVEST:M         
                  WEATHER :M  TILLAGE :N                                        
                                                                                
*SUMMARY OF SOIL AND GENETIC INPUT PARAMETERS                                   
                                                                                
   SOIL LOWER UPPER   SAT  EXTR  INIT   ROOT   BULK     pH    NO3    NH4    ORG 
  DEPTH LIMIT LIMIT    SW    SW    SW   DIST   DENS                          C  
   cm   cm3/cm3    cm3/cm3    cm3/cm3         g/cm3         ugN/g  ugN/g     %  
------------------------------------------------------------------------------- 
  0-  5 0.160 0.252 0.376 0.092 0.252   1.00   1.69   6.60   0.00   0.00   0.45 
  5- 15 0.160 0.252 0.376 0.092 0.252   1.00   1.69   6.60   0.00   0.00   0.45 
 15- 30 0.160 0.252 0.376 0.092 0.252   1.00   1.69   6.60   0.00   0.00   0.45 
 30- 53 0.120 0.200 0.440 0.080 0.200   0.27   1.40   7.10   0.00   0.00   0.17 
 53- 77 0.120 0.200 0.440 0.080 0.200   0.27   1.40   7.10   0.00   0.00   0.17 
 77-100 0.120 0.200 0.440 0.080 0.200   0.27   1.40   7.10   0.00   0.00   0.17 
                                                                                
TOT-100  13.2  21.6  42.1   8.4  21.6  <--cm   -  kg/ha-->    0.0    0.0  39475 
SOIL ALBEDO    : 0.09      EVAPORATION LIMIT : 6.00         MIN. FACTOR  : 1.00 
RUNOFF CURVE # :76.00      DRAINAGE RATE     : 0.60         FERT. FACTOR : 1.00 
                                                                                
 Maize      CULTIVAR :CI0001-P30F35             ECOTYPE :IB0001                 
 P1     : 200.00  P2     : 0.3000  P5     : 925.00                              
 G2     : 954.00  G3     :  7.000  PHINT  : 50.000                              


*SIMULATED CROP AND SOIL STATUS AT MAIN DEVELOPMENT STAGES

 RUN NO.    32     P12/31                  

        CROP GROWTH     BIOMASS         LEAF   CROP N     STRESS      STRESS                                           
   DATE  AGE STAGE        kg/ha    LAI   NUM  kg/ha  %   H2O  Nitr Phos1 Phos2  RSTG                                   
 ------  --- ----------   -----  -----  ----  ---  ---  ----  ----  ----  ----  ----                                   
  1 DEC    0 Start Sim        0   0.00   0.0    0  0.0  0.00  0.00  0.00  0.00     7
 31 DEC    0 Sowing           0   0.00   0.0    0  0.0  0.00  0.00  0.00  0.00     8
  1 JAN    1 Germinate        0   0.00   0.0    0  0.0  0.00  0.00  0.00  0.00     9
  5 JAN    5 Emergence       25   0.00   2.1    1  4.4  0.00  0.01  0.00  0.00     1
 15 JAN   15 End Juveni      94   0.20   6.9    3  3.2  0.00  0.00  0.00  0.00     2
 19 JAN   19 Floral Ini     212   0.41   8.6    5  2.2  0.00  0.10  0.00  0.00     3
 16 FEB   47 75% Silkin    1699   0.69  18.0   36  2.1  0.37  0.62  0.00  0.00     4
 24 FEB   55 Beg Gr Fil    2712   0.69  18.0   36  1.3  0.00  0.00  0.00  0.00     5
 30 MAR   89 End Gr Fil    5594   0.54  18.0   70  1.2  0.19  0.00  0.00  0.00     6
  2 APR   92 Maturity      5594   0.54  18.0   70  1.2  0.76  0.00  0.00  0.00    10
  2 APR   92 Harvest       5594   0.54  18.0   70  1.2  0.00  0.00  0.00  0.00    10


*MAIN GROWTH AND DEVELOPMENT VARIABLES

@     VARIABLE                                         SIMULATED     MEASURED
      --------                                         ---------     --------
      Anthesis day (dap)                                      47          -99
      Physiological maturity day (dap)                        92          -99
      Yield at harvest maturity (kg [dm]/ha)                2970          -99
      Number at maturity (no/m2)                            1767          -99
      Unit wt at maturity (g [dm]/unit)                   0.1681          -99
      Number at maturity (no/unit)                         285.0          -99
      Tops weight at maturity (kg [dm]/ha)                  5594          -99
      By-product produced (stalk) at maturity (kg[dm]/ha    2645          -99
      Leaf area index, maximum                              0.76          -99
      Harvest index at maturity                            0.531          -99
      Grain N at maturity (kg/ha)                             53          -99
      Tops N at maturity (kg/ha)                              70          -99
      Stem N at maturity (kg/ha)                              17          -99
      Grain N at maturity (%)                                1.8          -99
      Tops weight at anthesis (kg [dm]/ha)                  1555          -99
      Tops N at anthesis (kg/ha)                              34          -99
      Leaf number per stem at maturity                     18.01          -99
      Emergence day (dap)                                      5          -99


*ENVIRONMENTAL AND STRESS FACTORS

 |-----Development Phase------|--------------------------------------Environment--------------------------------------|-----------------Stress-----------------|
                              |---------------Average--------------|-----Cumulative-----|--------Count of days--------|          (0=Min, 1=Max Stress)         |
                         Time  Temp  Temp  Temp Solar Photop                Evapo    Pot TMIN TMIN TMAX TMAX TMAX RAIN|----Water----|---Nitrogen--|-Phosphorus-|
                         Span   Max   Min  Mean   Rad  [day]    CO2   Rain  Trans     ET   <    <    >    >    >    >   Photo         Photo         Photo
                         days    邂    邂    邂 MJ/m2     hr    ppm     mm     mm     mm  0邂  2邂 30邂 32邂 34邂  0mm  synth Growth  synth Growth  synth Growth
----------------------------------------------------------------------------------------------------------------------------------------------------------------
 Emergence-End Juvenile    10  32.8  23.0  27.9  19.8   0.00  347.8    0.0    7.7   57.5    0    0   10    7    2    0  0.000  0.000  0.003  0.008  0.000  0.000
 End Juvenil-Floral Init    4  36.0  22.3  29.1  22.5   0.00  348.0    0.0    5.4   27.2    0    0    4    4    4    0  0.000  0.000  0.011  0.028  0.000  0.000
 Floral Init-End Lf Grow   28  34.3  23.7  29.0  18.2   0.00  348.0   83.5   51.6  147.1    0    0   26   24   15    7  0.258  0.367  0.407  0.629  0.000  0.000
 End Lf Grth-Beg Grn Fil    8  34.9  24.3  29.6  22.3   0.00  348.1    3.3   26.0   51.6    0    0    8    8    6    2  0.000  0.000  0.000  0.000  0.000  0.000
 Grain Filling Phase       34  34.1  23.7  28.9  20.0   7.93  348.2   91.5  106.1  197.3    0    0   30   28   19    8  0.092  0.172  0.000  0.000  0.000  0.000


 Planting to Harvest       92  34.1  23.6  28.8  19.7   3.42  348.1  214.5  221.3  525.7    0    0   85   77   47   20  0.130  0.198  0.125  0.193  0.000  0.000
----------------------------------------------------------------------------------------------------------------------------------------------------------------


*Resource Productivity
 Growing season length:  92 days 

 Precipitation during growing season       214.5 mm[rain]
   Dry Matter Productivity                  2.61 kg[DM]/m3[rain]          =   26.1 kg[DM]/ha per mm[rain]
   Yield Productivity                       1.38 kg[grain yield]/m3[rain] =   13.8 kg[yield]/ha per mm[rain]

 Evapotranspiration during growing season  221.3 mm[ET]
   Dry Matter Productivity                  2.53 kg[DM]/m3[ET]            =   25.3 kg[DM]/ha per mm[ET]
   Yield Productivity                       1.34 kg[grain yield]/m3[ET]   =   13.4 kg[yield]/ha per mm[ET]

 Transpiration during growing season       125.1 mm[EP]
   Dry Matter Productivity                  4.47 kg[DM]/m3[EP]            =   44.7 kg[DM]/ha per mm[EP]
   Yield Productivity                       2.37 kg[grain yield]/m3[EP]   =   23.7 kg[yield]/ha per mm[EP]

 N applied during growing season            162. kg[N applied]/ha
   Dry Matter Productivity                  34.5 kg[DM]/kg[N applied]
   Yield Productivity                       18.3 kg[yield]/kg[N applied]

 N uptake during growing season               76 kg[N uptake]/ha
   Dry Matter Productivity                  73.6 kg[DM]/kg[N uptake]
   Yield Productivity                       39.1 kg[yield]/kg[N uptake]

--------------------------------------------------------------------------------------------------------------

                     Maize YIELD :     2970 kg/ha    [Dry weight] 

**************************************************************************************************************
