*SIMULATION OVERVIEW FILE

*DSSAT Cropping System Model Ver. 4.6.1.000 -release      OCT 24, 2017; 10:37:34
                                                                                
*RUN   1        : P04/02                    MZCER046 ANBU1982    1              
 MODEL          : MZCER046 - Maize                                              
 EXPERIMENT     : ANBU1982 MZ  Analisis a침os de bajo rendimiento Buga          
 DATA PATH      : C:\DSSAT46\maize\                                             
 TREATMENT  1   : P04/02                    MZCER046                            
                                                                                
                                                                                
 CROP           : Maize            CULTIVAR : DK7088           ECOTYPE :IB0001  
 STARTING DATE  : MAR  3 1982                                                   
 PLANTING DATE  : APR  2 1982        PLANTS/m2 :  6.2     ROW SPACING :  80.cm  
 WEATHER        : CUNI   1982                                                   
 SOIL           : CCBUGA2017     TEXTURE : CL    -   Suelo Buga MADR Fase I     
 SOIL INITIAL C : DEPTH: 90cm EXTR. H2O: 83.9mm  NO3:  0.0kg/ha  NH4:  0.0kg/ha 
 WATER BALANCE  : RAINFED                                                       
 IRRIGATION     : NOT IRRIGATED                                                 
 NITROGEN BAL.  : SOIL-N & N-UPTAKE SIMULATION; NO N-FIXATION                   
 N-FERTILIZER   :      161 kg/ha IN     5 APPLICATIONS                          
 RESIDUE/MANURE : INITIAL :     0 kg/ha ;       0 kg/ha IN     0 APPLICATIONS   
 ENVIRONM. OPT. : DAYL=    0.00  SRAD=    0.00  TMAX=    0.00  TMIN=    0.00    
                  RAIN=    0.00  CO2 =    0.00  DEW =    0.00  WIND=    0.00    
 SIMULATION OPT : WATER   :Y  NITROGEN:Y  N-FIX:N  PHOSPH :N  PESTS  :N         
                  PHOTO   :C  ET      :R  INFIL:S  HYDROL :R  SOM    :G         
                  CO2 341ppm  NSWIT   :1  EVAP :S  SOIL   :2  STEMP  :D         
 MANAGEMENT OPT : PLANTING:R  IRRIG   :N  FERT :D  RESIDUE:R  HARVEST:M         
                  WEATHER :M  TILLAGE :N                                        
                                                                                
*SUMMARY OF SOIL AND GENETIC INPUT PARAMETERS                                   
                                                                                
   SOIL LOWER UPPER   SAT  EXTR  INIT   ROOT   BULK     pH    NO3    NH4    ORG 
  DEPTH LIMIT LIMIT    SW    SW    SW   DIST   DENS                          C  
   cm   cm3/cm3    cm3/cm3    cm3/cm3         g/cm3         ugN/g  ugN/g     %  
------------------------------------------------------------------------------- 
  0-  5 0.215 0.331 0.341 0.116 0.331   1.00   1.68   6.70   0.00   0.00   0.75 
  5- 15 0.215 0.331 0.341 0.116 0.331   1.00   1.68   6.70   0.00   0.00   0.75 
 15- 25 0.215 0.331 0.341 0.116 0.331   1.00   1.68   6.70   0.00   0.00   0.75 
 25- 35 0.181 0.291 0.364 0.110 0.291   0.50   1.61   7.20   0.00   0.00   0.53 
 35- 45 0.181 0.291 0.364 0.110 0.291   0.50   1.61   7.20   0.00   0.00   0.53 
 45- 67 0.096 0.169 0.404 0.073 0.169   0.27   1.51   7.00   0.00   0.00   0.05 
 67- 90 0.096 0.169 0.404 0.073 0.169   0.27   1.51   7.00   0.00   0.00   0.05 
                                                                                
TOT- 90  13.3  21.7  34.0   8.4  21.7  <--cm   -  kg/ha-->    0.0    0.0  51964 
SOIL ALBEDO    : 0.09      EVAPORATION LIMIT : 6.00         MIN. FACTOR  : 1.00 
RUNOFF CURVE # :76.00      DRAINAGE RATE     : 0.60         FERT. FACTOR : 1.00 
                                                                                
 Maize      CULTIVAR :CI0004-DK7088             ECOTYPE :IB0001                 
 P1     : 229.00  P2     : 0.3000  P5     : 971.00                              
 G2     : 957.00  G3     :  7.500  PHINT  : 45.000                              


*SIMULATED CROP AND SOIL STATUS AT MAIN DEVELOPMENT STAGES

 RUN NO.     1     P04/02                  

        CROP GROWTH     BIOMASS         LEAF   CROP N     STRESS      STRESS                                           
   DATE  AGE STAGE        kg/ha    LAI   NUM  kg/ha  %   H2O  Nitr Phos1 Phos2  RSTG                                   
 ------  --- ----------   -----  -----  ----  ---  ---  ----  ----  ----  ----  ----                                   
  3 MAR    0 Start Sim        0   0.00   0.0    0  0.0  0.00  0.00  0.00  0.00     7
  2 APR    0 Sowing           0   0.00   0.0    0  0.0  0.00  0.00  0.00  0.00     8
  3 APR    1 Germinate        0   0.00   0.0    0  0.0  0.00  0.00  0.00  0.00     9
  8 APR    6 Emergence       25   0.00   2.1    1  4.4  0.00  0.01  0.00  0.00     1
 21 APR   19 End Juveni      77   0.17   7.6    3  3.5  0.00  0.00  0.00  0.00     2
 27 APR   25 Floral Ini     257   0.48  10.0    9  3.6  0.00  0.00  0.00  0.00     3
  2 JUN   61 75% Silkin    5222   2.99  20.7  100  1.9  0.00  0.00  0.00  0.00     4
 12 JUN   71 Beg Gr Fil    7380   2.83  20.7  100  1.3  0.00  0.00  0.00  0.00     5
 27 JUL  116 End Gr Fil   12031   0.81  20.7  143  1.2  0.63  0.00  0.00  0.00     6
 30 JUL  119 Maturity     12031   0.81  20.7  143  1.2  0.96  0.00  0.00  0.00    10
 30 JUL  119 Harvest      12031   0.81  20.7  143  1.2  0.00  0.00  0.00  0.00    10


*MAIN GROWTH AND DEVELOPMENT VARIABLES

@     VARIABLE                                         SIMULATED     MEASURED
      --------                                         ---------     --------
      Anthesis day (dap)                                      61          -99
      Physiological maturity day (dap)                       119          -99
      Yield at harvest maturity (kg [dm]/ha)                5688          -99
      Number at maturity (no/m2)                            2891          -99
      Unit wt at maturity (g [dm]/unit)                   0.1967          -99
      Number at maturity (no/unit)                         466.4          -99
      Tops weight at maturity (kg [dm]/ha)                 12031          -99
      By-product produced (stalk) at maturity (kg[dm]/ha    6393          -99
      Leaf area index, maximum                              3.14          -99
      Harvest index at maturity                            0.473          -99
      Grain N at maturity (kg/ha)                            102          -99
      Tops N at maturity (kg/ha)                             143          -99
      Stem N at maturity (kg/ha)                              41          -99
      Grain N at maturity (%)                                1.8          -99
      Tops weight at anthesis (kg [dm]/ha)                  4921          -99
      Tops N at anthesis (kg/ha)                              97          -99
      Leaf number per stem at maturity                     20.65          -99
      Emergence day (dap)                                      6          -99


*ENVIRONMENTAL AND STRESS FACTORS

 |-----Development Phase------|--------------------------------------Environment--------------------------------------|-----------------Stress-----------------|
                              |---------------Average--------------|-----Cumulative-----|--------Count of days--------|          (0=Min, 1=Max Stress)         |
                         Time  Temp  Temp  Temp Solar Photop                Evapo    Pot TMIN TMIN TMAX TMAX TMAX RAIN|----Water----|---Nitrogen--|-Phosphorus-|
                         Span   Max   Min  Mean   Rad  [day]    CO2   Rain  Trans     ET   <    <    >    >    >    >   Photo         Photo         Photo
                         days    邂    邂    邂 MJ/m2     hr    ppm     mm     mm     mm  0邂  2邂 30邂 32邂 34邂  0mm  synth Growth  synth Growth  synth Growth
----------------------------------------------------------------------------------------------------------------------------------------------------------------
 Emergence-End Juvenile    13  29.9  19.4  24.7  14.7  22.01  340.8   47.5   38.5   53.1    0    0    8    0    0    8  0.000  0.000  0.002  0.005  0.000  0.000
 End Juvenil-Floral Init    6  30.1  20.1  25.1  14.8  24.00  340.9    3.4   11.3   24.3    0    0    4    1    0    4  0.000  0.000  0.000  0.000  0.000  0.000
 Floral Init-End Lf Grow   36  29.5  19.6  24.5  14.0  24.00  340.9  231.7  120.1  123.6    0    0   11    0    0   23  0.000  0.000  0.000  0.000  0.000  0.000
 End Lf Grth-Beg Grn Fil   10  30.1  19.4  24.7  16.1  24.00  341.0   26.0   38.5   38.6    0    0    6    0    0    5  0.000  0.000  0.000  0.000  0.000  0.000
 Grain Filling Phase       45  31.4  18.3  24.9  17.8  24.00  341.1   43.8   94.3  197.4    0    0   36   12    1    8  0.539  0.614  0.000  0.000  0.000  0.000


 Planting to Harvest      119  30.3  19.1  24.7  15.7  23.42  341.0  388.7  325.2  471.6    0    0   68   13    1   55  0.228  0.256  0.000  0.001  0.000  0.000
----------------------------------------------------------------------------------------------------------------------------------------------------------------


*Resource Productivity
 Growing season length: 119 days 

 Precipitation during growing season       388.7 mm[rain]
   Dry Matter Productivity                  3.10 kg[DM]/m3[rain]          =   31.0 kg[DM]/ha per mm[rain]
   Yield Productivity                       1.46 kg[grain yield]/m3[rain] =   14.6 kg[yield]/ha per mm[rain]

 Evapotranspiration during growing season  325.2 mm[ET]
   Dry Matter Productivity                  3.70 kg[DM]/m3[ET]            =   37.0 kg[DM]/ha per mm[ET]
   Yield Productivity                       1.75 kg[grain yield]/m3[ET]   =   17.5 kg[yield]/ha per mm[ET]

 Transpiration during growing season       187.4 mm[EP]
   Dry Matter Productivity                  6.42 kg[DM]/m3[EP]            =   64.2 kg[DM]/ha per mm[EP]
   Yield Productivity                       3.03 kg[grain yield]/m3[EP]   =   30.3 kg[yield]/ha per mm[EP]

 N applied during growing season            161. kg[N applied]/ha
   Dry Matter Productivity                  74.7 kg[DM]/kg[N applied]
   Yield Productivity                       35.3 kg[yield]/kg[N applied]

 N uptake during growing season              157 kg[N uptake]/ha
   Dry Matter Productivity                  76.6 kg[DM]/kg[N uptake]
   Yield Productivity                       36.2 kg[yield]/kg[N uptake]

--------------------------------------------------------------------------------------------------------------

                     Maize YIELD :     5688 kg/ha    [Dry weight] 

**************************************************************************************************************

*DSSAT Cropping System Model Ver. 4.6.1.000 -release      OCT 24, 2017; 10:37:34
                                                                                
*RUN   2        : P04/07                    MZCER046 ANBU1982    2              
 MODEL          : MZCER046 - Maize                                              
 EXPERIMENT     : ANBU1982 MZ  Analisis a침os de bajo rendimiento Buga          
 DATA PATH      : C:\DSSAT46\maize\                                             
 TREATMENT  2   : P04/07                    MZCER046                            
                                                                                
                                                                                
 CROP           : Maize            CULTIVAR : DK7088           ECOTYPE :IB0001  
 STARTING DATE  : MAR  8 1982                                                   
 PLANTING DATE  : APR  7 1982        PLANTS/m2 :  6.2     ROW SPACING :  80.cm  
 WEATHER        : CUNI   1982                                                   
 SOIL           : CCBUGA2017     TEXTURE : CL    -   Suelo Buga MADR Fase I     
 SOIL INITIAL C : DEPTH: 90cm EXTR. H2O: 83.9mm  NO3:  0.0kg/ha  NH4:  0.0kg/ha 
 WATER BALANCE  : RAINFED                                                       
 IRRIGATION     : NOT IRRIGATED                                                 
 NITROGEN BAL.  : SOIL-N & N-UPTAKE SIMULATION; NO N-FIXATION                   
 N-FERTILIZER   :      161 kg/ha IN     5 APPLICATIONS                          
 RESIDUE/MANURE : INITIAL :     0 kg/ha ;       0 kg/ha IN     0 APPLICATIONS   
 ENVIRONM. OPT. : DAYL=    0.00  SRAD=    0.00  TMAX=    0.00  TMIN=    0.00    
                  RAIN=    0.00  CO2 =    0.00  DEW =    0.00  WIND=    0.00    
 SIMULATION OPT : WATER   :Y  NITROGEN:Y  N-FIX:N  PHOSPH :N  PESTS  :N         
                  PHOTO   :C  ET      :R  INFIL:S  HYDROL :R  SOM    :G         
                  CO2 341ppm  NSWIT   :1  EVAP :S  SOIL   :2  STEMP  :D         
 MANAGEMENT OPT : PLANTING:R  IRRIG   :N  FERT :D  RESIDUE:R  HARVEST:M         
                  WEATHER :M  TILLAGE :N                                        
                                                                                
*SUMMARY OF SOIL AND GENETIC INPUT PARAMETERS                                   
                                                                                
   SOIL LOWER UPPER   SAT  EXTR  INIT   ROOT   BULK     pH    NO3    NH4    ORG 
  DEPTH LIMIT LIMIT    SW    SW    SW   DIST   DENS                          C  
   cm   cm3/cm3    cm3/cm3    cm3/cm3         g/cm3         ugN/g  ugN/g     %  
------------------------------------------------------------------------------- 
  0-  5 0.215 0.331 0.341 0.116 0.331   1.00   1.68   6.70   0.00   0.00   0.75 
  5- 15 0.215 0.331 0.341 0.116 0.331   1.00   1.68   6.70   0.00   0.00   0.75 
 15- 25 0.215 0.331 0.341 0.116 0.331   1.00   1.68   6.70   0.00   0.00   0.75 
 25- 35 0.181 0.291 0.364 0.110 0.291   0.50   1.61   7.20   0.00   0.00   0.53 
 35- 45 0.181 0.291 0.364 0.110 0.291   0.50   1.61   7.20   0.00   0.00   0.53 
 45- 67 0.096 0.169 0.404 0.073 0.169   0.27   1.51   7.00   0.00   0.00   0.05 
 67- 90 0.096 0.169 0.404 0.073 0.169   0.27   1.51   7.00   0.00   0.00   0.05 
                                                                                
TOT- 90  13.3  21.7  34.0   8.4  21.7  <--cm   -  kg/ha-->    0.0    0.0  51964 
SOIL ALBEDO    : 0.09      EVAPORATION LIMIT : 6.00         MIN. FACTOR  : 1.00 
RUNOFF CURVE # :76.00      DRAINAGE RATE     : 0.60         FERT. FACTOR : 1.00 
                                                                                
 Maize      CULTIVAR :CI0004-DK7088             ECOTYPE :IB0001                 
 P1     : 229.00  P2     : 0.3000  P5     : 971.00                              
 G2     : 957.00  G3     :  7.500  PHINT  : 45.000                              


*SIMULATED CROP AND SOIL STATUS AT MAIN DEVELOPMENT STAGES

 RUN NO.     2     P04/07                  

        CROP GROWTH     BIOMASS         LEAF   CROP N     STRESS      STRESS                                           
   DATE  AGE STAGE        kg/ha    LAI   NUM  kg/ha  %   H2O  Nitr Phos1 Phos2  RSTG                                   
 ------  --- ----------   -----  -----  ----  ---  ---  ----  ----  ----  ----  ----                                   
  8 MAR    0 Start Sim        0   0.00   0.0    0  0.0  0.00  0.00  0.00  0.00     7
  7 APR    0 Sowing           0   0.00   0.0    0  0.0  0.00  0.00  0.00  0.00     8
  8 APR    1 Germinate        0   0.00   0.0    0  0.0  0.00  0.00  0.00  0.00     9
 13 APR    6 Emergence       25   0.00   2.0    1  4.4  0.00  0.01  0.00  0.00     1
 26 APR   19 End Juveni      92   0.20   7.7    3  3.3  0.00  0.00  0.00  0.00     2
  3 MAY   26 Floral Ini     298   0.54  10.4   11  3.6  0.00  0.00  0.00  0.00     3
  9 JUN   63 75% Silkin    5724   3.04  21.8  112  2.0  0.00  0.00  0.00  0.00     4
 19 JUN   73 Beg Gr Fil    7937   2.84  21.8  113  1.4  0.15  0.00  0.00  0.00     5
  2 AUG  117 End Gr Fil   11057   0.62  21.8  132  1.2  0.76  0.00  0.00  0.00     6
  5 AUG  120 Maturity     11057   0.62  21.8  132  1.2  0.96  0.00  0.00  0.00    10
  5 AUG  120 Harvest      11057   0.62  21.8  132  1.2  0.00  0.00  0.00  0.00    10


*MAIN GROWTH AND DEVELOPMENT VARIABLES

@     VARIABLE                                         SIMULATED     MEASURED
      --------                                         ---------     --------
      Anthesis day (dap)                                      63          -99
      Physiological maturity day (dap)                       120          -99
      Yield at harvest maturity (kg [dm]/ha)                4339          -99
      Number at maturity (no/m2)                            2950          -99
      Unit wt at maturity (g [dm]/unit)                   0.1471          -99
      Number at maturity (no/unit)                         475.8          -99
      Tops weight at maturity (kg [dm]/ha)                 11057          -99
      By-product produced (stalk) at maturity (kg[dm]/ha    6769          -99
      Leaf area index, maximum                              3.19          -99
      Harvest index at maturity                            0.392          -99
      Grain N at maturity (kg/ha)                             79          -99
      Tops N at maturity (kg/ha)                             132          -99
      Stem N at maturity (kg/ha)                              53          -99
      Grain N at maturity (%)                                1.8          -99
      Tops weight at anthesis (kg [dm]/ha)                  5480          -99
      Tops N at anthesis (kg/ha)                             111          -99
      Leaf number per stem at maturity                     21.81          -99
      Emergence day (dap)                                      6          -99


*ENVIRONMENTAL AND STRESS FACTORS

 |-----Development Phase------|--------------------------------------Environment--------------------------------------|-----------------Stress-----------------|
                              |---------------Average--------------|-----Cumulative-----|--------Count of days--------|          (0=Min, 1=Max Stress)         |
                         Time  Temp  Temp  Temp Solar Photop                Evapo    Pot TMIN TMIN TMAX TMAX TMAX RAIN|----Water----|---Nitrogen--|-Phosphorus-|
                         Span   Max   Min  Mean   Rad  [day]    CO2   Rain  Trans     ET   <    <    >    >    >    >   Photo         Photo         Photo
                         days    邂    邂    邂 MJ/m2     hr    ppm     mm     mm     mm  0邂  2邂 30邂 32邂 34邂  0mm  synth Growth  synth Growth  synth Growth
----------------------------------------------------------------------------------------------------------------------------------------------------------------
 Emergence-End Juvenile    13  30.2  19.7  24.9  14.8  23.76  340.9   18.5   27.7   53.6    0    0    9    1    0    7  0.000  0.000  0.002  0.005  0.000  0.000
 End Juvenil-Floral Init    7  29.5  19.4  24.5  13.0  24.00  340.9   65.9   16.4   24.6    0    0    4    0    0    6  0.000  0.000  0.001  0.001  0.000  0.000
 Floral Init-End Lf Grow   37  29.6  19.6  24.6  14.5  24.00  340.9  173.6  129.2  131.9    0    0   12    0    0   20  0.000  0.000  0.000  0.000  0.000  0.000
 End Lf Grth-Beg Grn Fil   10  30.4  19.0  24.7  16.6  24.00  341.0   21.0   39.1   39.5    0    0    6    0    0    4  0.011  0.081  0.000  0.000  0.000  0.000
 Grain Filling Phase       44  31.6  18.3  25.0  18.2  24.00  341.1   45.7   69.5  200.3    0    0   37   15    2   10  0.689  0.753  0.000  0.000  0.000  0.000


 Planting to Harvest      120  30.6  19.0  24.8  16.2  23.73  341.0  360.0  307.5  491.4    0    0   74   19    4   52  0.277  0.307  0.000  0.001  0.000  0.000
----------------------------------------------------------------------------------------------------------------------------------------------------------------


*Resource Productivity
 Growing season length: 120 days 

 Precipitation during growing season       360.0 mm[rain]
   Dry Matter Productivity                  3.07 kg[DM]/m3[rain]          =   30.7 kg[DM]/ha per mm[rain]
   Yield Productivity                       1.21 kg[grain yield]/m3[rain] =   12.1 kg[yield]/ha per mm[rain]

 Evapotranspiration during growing season  307.5 mm[ET]
   Dry Matter Productivity                  3.60 kg[DM]/m3[ET]            =   36.0 kg[DM]/ha per mm[ET]
   Yield Productivity                       1.41 kg[grain yield]/m3[ET]   =   14.1 kg[yield]/ha per mm[ET]

 Transpiration during growing season       170.6 mm[EP]
   Dry Matter Productivity                  6.48 kg[DM]/m3[EP]            =   64.8 kg[DM]/ha per mm[EP]
   Yield Productivity                       2.54 kg[grain yield]/m3[EP]   =   25.4 kg[yield]/ha per mm[EP]

 N applied during growing season            161. kg[N applied]/ha
   Dry Matter Productivity                  68.7 kg[DM]/kg[N applied]
   Yield Productivity                       27.0 kg[yield]/kg[N applied]

 N uptake during growing season              144 kg[N uptake]/ha
   Dry Matter Productivity                  76.8 kg[DM]/kg[N uptake]
   Yield Productivity                       30.1 kg[yield]/kg[N uptake]

--------------------------------------------------------------------------------------------------------------

                     Maize YIELD :     4339 kg/ha    [Dry weight] 

**************************************************************************************************************

*DSSAT Cropping System Model Ver. 4.6.1.000 -release      OCT 24, 2017; 10:37:34
                                                                                
*RUN   3        : P04/12                    MZCER046 ANBU1982    3              
 MODEL          : MZCER046 - Maize                                              
 EXPERIMENT     : ANBU1982 MZ  Analisis a침os de bajo rendimiento Buga          
 DATA PATH      : C:\DSSAT46\maize\                                             
 TREATMENT  3   : P04/12                    MZCER046                            
                                                                                
                                                                                
 CROP           : Maize            CULTIVAR : DK7088           ECOTYPE :IB0001  
 STARTING DATE  : MAR 13 1982                                                   
 PLANTING DATE  : APR 12 1982        PLANTS/m2 :  6.2     ROW SPACING :  80.cm  
 WEATHER        : CUNI   1982                                                   
 SOIL           : CCBUGA2017     TEXTURE : CL    -   Suelo Buga MADR Fase I     
 SOIL INITIAL C : DEPTH: 90cm EXTR. H2O: 83.9mm  NO3:  0.0kg/ha  NH4:  0.0kg/ha 
 WATER BALANCE  : RAINFED                                                       
 IRRIGATION     : NOT IRRIGATED                                                 
 NITROGEN BAL.  : SOIL-N & N-UPTAKE SIMULATION; NO N-FIXATION                   
 N-FERTILIZER   :      161 kg/ha IN     5 APPLICATIONS                          
 RESIDUE/MANURE : INITIAL :     0 kg/ha ;       0 kg/ha IN     0 APPLICATIONS   
 ENVIRONM. OPT. : DAYL=    0.00  SRAD=    0.00  TMAX=    0.00  TMIN=    0.00    
                  RAIN=    0.00  CO2 =    0.00  DEW =    0.00  WIND=    0.00    
 SIMULATION OPT : WATER   :Y  NITROGEN:Y  N-FIX:N  PHOSPH :N  PESTS  :N         
                  PHOTO   :C  ET      :R  INFIL:S  HYDROL :R  SOM    :G         
                  CO2 341ppm  NSWIT   :1  EVAP :S  SOIL   :2  STEMP  :D         
 MANAGEMENT OPT : PLANTING:R  IRRIG   :N  FERT :D  RESIDUE:R  HARVEST:M         
                  WEATHER :M  TILLAGE :N                                        
                                                                                
*SUMMARY OF SOIL AND GENETIC INPUT PARAMETERS                                   
                                                                                
   SOIL LOWER UPPER   SAT  EXTR  INIT   ROOT   BULK     pH    NO3    NH4    ORG 
  DEPTH LIMIT LIMIT    SW    SW    SW   DIST   DENS                          C  
   cm   cm3/cm3    cm3/cm3    cm3/cm3         g/cm3         ugN/g  ugN/g     %  
------------------------------------------------------------------------------- 
  0-  5 0.215 0.331 0.341 0.116 0.331   1.00   1.68   6.70   0.00   0.00   0.75 
  5- 15 0.215 0.331 0.341 0.116 0.331   1.00   1.68   6.70   0.00   0.00   0.75 
 15- 25 0.215 0.331 0.341 0.116 0.331   1.00   1.68   6.70   0.00   0.00   0.75 
 25- 35 0.181 0.291 0.364 0.110 0.291   0.50   1.61   7.20   0.00   0.00   0.53 
 35- 45 0.181 0.291 0.364 0.110 0.291   0.50   1.61   7.20   0.00   0.00   0.53 
 45- 67 0.096 0.169 0.404 0.073 0.169   0.27   1.51   7.00   0.00   0.00   0.05 
 67- 90 0.096 0.169 0.404 0.073 0.169   0.27   1.51   7.00   0.00   0.00   0.05 
                                                                                
TOT- 90  13.3  21.7  34.0   8.4  21.7  <--cm   -  kg/ha-->    0.0    0.0  51964 
SOIL ALBEDO    : 0.09      EVAPORATION LIMIT : 6.00         MIN. FACTOR  : 1.00 
RUNOFF CURVE # :76.00      DRAINAGE RATE     : 0.60         FERT. FACTOR : 1.00 
                                                                                
 Maize      CULTIVAR :CI0004-DK7088             ECOTYPE :IB0001                 
 P1     : 229.00  P2     : 0.3000  P5     : 971.00                              
 G2     : 957.00  G3     :  7.500  PHINT  : 45.000                              


*SIMULATED CROP AND SOIL STATUS AT MAIN DEVELOPMENT STAGES

 RUN NO.     3     P04/12                  

        CROP GROWTH     BIOMASS         LEAF   CROP N     STRESS      STRESS                                           
   DATE  AGE STAGE        kg/ha    LAI   NUM  kg/ha  %   H2O  Nitr Phos1 Phos2  RSTG                                   
 ------  --- ----------   -----  -----  ----  ---  ---  ----  ----  ----  ----  ----                                   
 13 MAR    0 Start Sim        0   0.00   0.0    0  0.0  0.00  0.00  0.00  0.00     7
 12 APR    0 Sowing           0   0.00   0.0    0  0.0  0.00  0.00  0.00  0.00     8
 13 APR    1 Germinate        0   0.00   0.0    0  0.0  0.00  0.00  0.00  0.00     9
 18 APR    6 Emergence       25   0.00   2.1    1  4.4  0.00  0.01  0.00  0.00     1
  1 MAY   19 End Juveni      89   0.19   7.7    3  3.6  0.00  0.00  0.00  0.00     2
  8 MAY   26 Floral Ini     254   0.48  10.4    9  3.6  0.00  0.00  0.00  0.00     3
 14 JUN   63 75% Silkin    6023   3.10  21.8  118  2.0  0.00  0.00  0.00  0.00     4
 25 JUN   74 Beg Gr Fil    7517   2.62  21.8  118  1.6  0.45  0.00  0.00  0.00     5
  7 AUG  117 End Gr Fil    9587   0.49  21.8  118  1.2  0.83  0.00  0.00  0.00     6
 10 AUG  120 Maturity      9587   0.49  21.8  118  1.2  0.95  0.00  0.00  0.00    10
 10 AUG  120 Harvest       9587   0.49  21.8  118  1.2  0.00  0.00  0.00  0.00    10


*MAIN GROWTH AND DEVELOPMENT VARIABLES

@     VARIABLE                                         SIMULATED     MEASURED
      --------                                         ---------     --------
      Anthesis day (dap)                                      63          -99
      Physiological maturity day (dap)                       120          -99
      Yield at harvest maturity (kg [dm]/ha)                3501          -99
      Number at maturity (no/m2)                            2204          -99
      Unit wt at maturity (g [dm]/unit)                   0.1589          -99
      Number at maturity (no/unit)                         355.5          -99
      Tops weight at maturity (kg [dm]/ha)                  9587          -99
      By-product produced (stalk) at maturity (kg[dm]/ha    6139          -99
      Leaf area index, maximum                              3.26          -99
      Harvest index at maturity                            0.365          -99
      Grain N at maturity (kg/ha)                             65          -99
      Tops N at maturity (kg/ha)                             118          -99
      Stem N at maturity (kg/ha)                              53          -99
      Grain N at maturity (%)                                1.9          -99
      Tops weight at anthesis (kg [dm]/ha)                  5738          -99
      Tops N at anthesis (kg/ha)                             117          -99
      Leaf number per stem at maturity                     21.78          -99
      Emergence day (dap)                                      6          -99


*ENVIRONMENTAL AND STRESS FACTORS

 |-----Development Phase------|--------------------------------------Environment--------------------------------------|-----------------Stress-----------------|
                              |---------------Average--------------|-----Cumulative-----|--------Count of days--------|          (0=Min, 1=Max Stress)         |
                         Time  Temp  Temp  Temp Solar Photop                Evapo    Pot TMIN TMIN TMAX TMAX TMAX RAIN|----Water----|---Nitrogen--|-Phosphorus-|
                         Span   Max   Min  Mean   Rad  [day]    CO2   Rain  Trans     ET   <    <    >    >    >    >   Photo         Photo         Photo
                         days    邂    邂    邂 MJ/m2     hr    ppm     mm     mm     mm  0邂  2邂 30邂 32邂 34邂  0mm  synth Growth  synth Growth  synth Growth
----------------------------------------------------------------------------------------------------------------------------------------------------------------
 Emergence-End Juvenile    13  29.9  19.8  24.8  13.3  24.00  340.9   17.0   21.0   48.4    0    0    8    1    0    9  0.000  0.000  0.002  0.005  0.000  0.000
 End Juvenil-Floral Init    7  30.4  19.8  25.1  13.5  24.00  340.9   71.0   25.8   25.8    0    0    4    0    0    5  0.000  0.000  0.000  0.001  0.000  0.000
 Floral Init-End Lf Grow   37  29.6  19.5  24.6  15.0  24.00  341.0  181.6  130.9  136.9    0    0   12    0    0   21  0.000  0.000  0.000  0.000  0.000  0.000
 End Lf Grth-Beg Grn Fil   11  30.3  18.4  24.4  15.2  24.00  341.0   10.7   31.8   39.6    0    0    5    0    0    3  0.226  0.375  0.000  0.000  0.000  0.000
 Grain Filling Phase       43  32.0  18.2  25.1  19.1  24.00  341.1   35.0   57.1  208.2    0    0   40   19    4    7  0.777  0.827  0.000  0.000  0.000  0.000


 Planting to Harvest      120  30.7  18.9  24.8  16.4  23.95  341.0  327.8  284.8  499.9    0    0   76   21    4   49  0.322  0.355  0.000  0.001  0.000  0.000
----------------------------------------------------------------------------------------------------------------------------------------------------------------


*Resource Productivity
 Growing season length: 120 days 

 Precipitation during growing season       327.8 mm[rain]
   Dry Matter Productivity                  2.92 kg[DM]/m3[rain]          =   29.2 kg[DM]/ha per mm[rain]
   Yield Productivity                       1.07 kg[grain yield]/m3[rain] =   10.7 kg[yield]/ha per mm[rain]

 Evapotranspiration during growing season  284.8 mm[ET]
   Dry Matter Productivity                  3.37 kg[DM]/m3[ET]            =   33.7 kg[DM]/ha per mm[ET]
   Yield Productivity                       1.23 kg[grain yield]/m3[ET]   =   12.3 kg[yield]/ha per mm[ET]

 Transpiration during growing season       153.6 mm[EP]
   Dry Matter Productivity                  6.24 kg[DM]/m3[EP]            =   62.4 kg[DM]/ha per mm[EP]
   Yield Productivity                       2.28 kg[grain yield]/m3[EP]   =   22.8 kg[yield]/ha per mm[EP]

 N applied during growing season            161. kg[N applied]/ha
   Dry Matter Productivity                  59.5 kg[DM]/kg[N applied]
   Yield Productivity                       21.7 kg[yield]/kg[N applied]

 N uptake during growing season              129 kg[N uptake]/ha
   Dry Matter Productivity                  74.3 kg[DM]/kg[N uptake]
   Yield Productivity                       27.1 kg[yield]/kg[N uptake]

--------------------------------------------------------------------------------------------------------------

                     Maize YIELD :     3501 kg/ha    [Dry weight] 

**************************************************************************************************************

*DSSAT Cropping System Model Ver. 4.6.1.000 -release      OCT 24, 2017; 10:37:34
                                                                                
*RUN   4        : P04/17                    MZCER046 ANBU1982    4              
 MODEL          : MZCER046 - Maize                                              
 EXPERIMENT     : ANBU1982 MZ  Analisis a침os de bajo rendimiento Buga          
 DATA PATH      : C:\DSSAT46\maize\                                             
 TREATMENT  4   : P04/17                    MZCER046                            
                                                                                
                                                                                
 CROP           : Maize            CULTIVAR : DK7088           ECOTYPE :IB0001  
 STARTING DATE  : MAR 18 1982                                                   
 PLANTING DATE  : APR 17 1982        PLANTS/m2 :  6.2     ROW SPACING :  80.cm  
 WEATHER        : CUNI   1982                                                   
 SOIL           : CCBUGA2017     TEXTURE : CL    -   Suelo Buga MADR Fase I     
 SOIL INITIAL C : DEPTH: 90cm EXTR. H2O: 83.9mm  NO3:  0.0kg/ha  NH4:  0.0kg/ha 
 WATER BALANCE  : RAINFED                                                       
 IRRIGATION     : NOT IRRIGATED                                                 
 NITROGEN BAL.  : SOIL-N & N-UPTAKE SIMULATION; NO N-FIXATION                   
 N-FERTILIZER   :      161 kg/ha IN     5 APPLICATIONS                          
 RESIDUE/MANURE : INITIAL :     0 kg/ha ;       0 kg/ha IN     0 APPLICATIONS   
 ENVIRONM. OPT. : DAYL=    0.00  SRAD=    0.00  TMAX=    0.00  TMIN=    0.00    
                  RAIN=    0.00  CO2 =    0.00  DEW =    0.00  WIND=    0.00    
 SIMULATION OPT : WATER   :Y  NITROGEN:Y  N-FIX:N  PHOSPH :N  PESTS  :N         
                  PHOTO   :C  ET      :R  INFIL:S  HYDROL :R  SOM    :G         
                  CO2 341ppm  NSWIT   :1  EVAP :S  SOIL   :2  STEMP  :D         
 MANAGEMENT OPT : PLANTING:R  IRRIG   :N  FERT :D  RESIDUE:R  HARVEST:M         
                  WEATHER :M  TILLAGE :N                                        
                                                                                
*SUMMARY OF SOIL AND GENETIC INPUT PARAMETERS                                   
                                                                                
   SOIL LOWER UPPER   SAT  EXTR  INIT   ROOT   BULK     pH    NO3    NH4    ORG 
  DEPTH LIMIT LIMIT    SW    SW    SW   DIST   DENS                          C  
   cm   cm3/cm3    cm3/cm3    cm3/cm3         g/cm3         ugN/g  ugN/g     %  
------------------------------------------------------------------------------- 
  0-  5 0.215 0.331 0.341 0.116 0.331   1.00   1.68   6.70   0.00   0.00   0.75 
  5- 15 0.215 0.331 0.341 0.116 0.331   1.00   1.68   6.70   0.00   0.00   0.75 
 15- 25 0.215 0.331 0.341 0.116 0.331   1.00   1.68   6.70   0.00   0.00   0.75 
 25- 35 0.181 0.291 0.364 0.110 0.291   0.50   1.61   7.20   0.00   0.00   0.53 
 35- 45 0.181 0.291 0.364 0.110 0.291   0.50   1.61   7.20   0.00   0.00   0.53 
 45- 67 0.096 0.169 0.404 0.073 0.169   0.27   1.51   7.00   0.00   0.00   0.05 
 67- 90 0.096 0.169 0.404 0.073 0.169   0.27   1.51   7.00   0.00   0.00   0.05 
                                                                                
TOT- 90  13.3  21.7  34.0   8.4  21.7  <--cm   -  kg/ha-->    0.0    0.0  51964 
SOIL ALBEDO    : 0.09      EVAPORATION LIMIT : 6.00         MIN. FACTOR  : 1.00 
RUNOFF CURVE # :76.00      DRAINAGE RATE     : 0.60         FERT. FACTOR : 1.00 
                                                                                
 Maize      CULTIVAR :CI0004-DK7088             ECOTYPE :IB0001                 
 P1     : 229.00  P2     : 0.3000  P5     : 971.00                              
 G2     : 957.00  G3     :  7.500  PHINT  : 45.000                              


*SIMULATED CROP AND SOIL STATUS AT MAIN DEVELOPMENT STAGES

 RUN NO.     4     P04/17                  

        CROP GROWTH     BIOMASS         LEAF   CROP N     STRESS      STRESS                                           
   DATE  AGE STAGE        kg/ha    LAI   NUM  kg/ha  %   H2O  Nitr Phos1 Phos2  RSTG                                   
 ------  --- ----------   -----  -----  ----  ---  ---  ----  ----  ----  ----  ----                                   
 18 MAR    0 Start Sim        0   0.00   0.0    0  0.0  0.00  0.00  0.00  0.00     7
 17 APR    0 Sowing           0   0.00   0.0    0  0.0  0.00  0.00  0.00  0.00     8
 18 APR    1 Germinate        0   0.00   0.0    0  0.0  0.00  0.00  0.00  0.00     9
 23 APR    6 Emergence       25   0.00   2.1    1  4.4  0.00  0.01  0.00  0.00     1
  6 MAY   19 End Juveni      73   0.16   7.7    3  3.7  0.00  0.00  0.00  0.00     2
 13 MAY   26 Floral Ini     235   0.45  10.4    8  3.6  0.00  0.00  0.00  0.00     3
 19 JUN   63 75% Silkin    5782   3.07  21.8  115  2.0  0.06  0.00  0.00  0.00     4
 29 JUN   73 Beg Gr Fil    6927   2.47  21.8  115  1.7  0.50  0.00  0.00  0.00     5
 12 AUG  117 End Gr Fil    8737   0.43  21.8  115  1.3  0.84  0.00  0.00  0.00     6
 15 AUG  120 Maturity      8737   0.43  21.8  115  1.3  0.95  0.00  0.00  0.00    10
 15 AUG  120 Harvest       8737   0.43  21.8  115  1.3  0.00  0.00  0.00  0.00    10


*MAIN GROWTH AND DEVELOPMENT VARIABLES

@     VARIABLE                                         SIMULATED     MEASURED
      --------                                         ---------     --------
      Anthesis day (dap)                                      63          -99
      Physiological maturity day (dap)                       120          -99
      Yield at harvest maturity (kg [dm]/ha)                3098          -99
      Number at maturity (no/m2)                            1903          -99
      Unit wt at maturity (g [dm]/unit)                   0.1628          -99
      Number at maturity (no/unit)                         306.9          -99
      Tops weight at maturity (kg [dm]/ha)                  8737          -99
      By-product produced (stalk) at maturity (kg[dm]/ha    5689          -99
      Leaf area index, maximum                              3.16          -99
      Harvest index at maturity                            0.355          -99
      Grain N at maturity (kg/ha)                             58          -99
      Tops N at maturity (kg/ha)                             115          -99
      Stem N at maturity (kg/ha)                              58          -99
      Grain N at maturity (%)                                1.9          -99
      Tops weight at anthesis (kg [dm]/ha)                  5610          -99
      Tops N at anthesis (kg/ha)                             113          -99
      Leaf number per stem at maturity                     21.78          -99
      Emergence day (dap)                                      6          -99


*ENVIRONMENTAL AND STRESS FACTORS

 |-----Development Phase------|--------------------------------------Environment--------------------------------------|-----------------Stress-----------------|
                              |---------------Average--------------|-----Cumulative-----|--------Count of days--------|          (0=Min, 1=Max Stress)         |
                         Time  Temp  Temp  Temp Solar Photop                Evapo    Pot TMIN TMIN TMAX TMAX TMAX RAIN|----Water----|---Nitrogen--|-Phosphorus-|
                         Span   Max   Min  Mean   Rad  [day]    CO2   Rain  Trans     ET   <    <    >    >    >    >   Photo         Photo         Photo
                         days    邂    邂    邂 MJ/m2     hr    ppm     mm     mm     mm  0邂  2邂 30邂 32邂 34邂  0mm  synth Growth  synth Growth  synth Growth
----------------------------------------------------------------------------------------------------------------------------------------------------------------
 Emergence-End Juvenile    13  30.1  19.7  24.9  13.7  24.00  340.9   74.7   30.5   49.7    0    0    8    1    0    9  0.000  0.000  0.002  0.005  0.000  0.000
 End Juvenil-Floral Init    7  29.7  19.8  24.7  12.9  24.00  340.9   17.4   18.4   24.7    0    0    3    0    0    3  0.000  0.000  0.001  0.001  0.000  0.000
 Floral Init-End Lf Grow   37  29.7  19.3  24.5  15.4  24.00  341.0  169.2  134.2  140.5    0    0   13    0    0   19  0.010  0.041  0.000  0.000  0.000  0.000
 End Lf Grth-Beg Grn Fil   10  30.4  18.7  24.6  16.7  24.00  341.1   10.7   25.7   39.8    0    0    5    0    0    3  0.354  0.472  0.000  0.000  0.000  0.000
 Grain Filling Phase       44  32.3  18.1  25.2  19.1  24.00  341.1   38.1   54.4  213.5    0    0   42   22    6    9  0.796  0.842  0.000  0.000  0.000  0.000


 Planting to Harvest      120  30.9  18.9  24.9  16.5  24.00  341.0  319.2  277.5  506.3    0    0   77   26    8   48  0.348  0.384  0.000  0.001  0.000  0.000
----------------------------------------------------------------------------------------------------------------------------------------------------------------


*Resource Productivity
 Growing season length: 120 days 

 Precipitation during growing season       319.2 mm[rain]
   Dry Matter Productivity                  2.74 kg[DM]/m3[rain]          =   27.4 kg[DM]/ha per mm[rain]
   Yield Productivity                       0.97 kg[grain yield]/m3[rain] =    9.7 kg[yield]/ha per mm[rain]

 Evapotranspiration during growing season  277.5 mm[ET]
   Dry Matter Productivity                  3.15 kg[DM]/m3[ET]            =   31.5 kg[DM]/ha per mm[ET]
   Yield Productivity                       1.12 kg[grain yield]/m3[ET]   =   11.2 kg[yield]/ha per mm[ET]

 Transpiration during growing season       142.9 mm[EP]
   Dry Matter Productivity                  6.11 kg[DM]/m3[EP]            =   61.1 kg[DM]/ha per mm[EP]
   Yield Productivity                       2.17 kg[grain yield]/m3[EP]   =   21.7 kg[yield]/ha per mm[EP]

 N applied during growing season            161. kg[N applied]/ha
   Dry Matter Productivity                  54.3 kg[DM]/kg[N applied]
   Yield Productivity                       19.2 kg[yield]/kg[N applied]

 N uptake during growing season              126 kg[N uptake]/ha
   Dry Matter Productivity                  69.3 kg[DM]/kg[N uptake]
   Yield Productivity                       24.6 kg[yield]/kg[N uptake]

--------------------------------------------------------------------------------------------------------------

                     Maize YIELD :     3098 kg/ha    [Dry weight] 

**************************************************************************************************************

*DSSAT Cropping System Model Ver. 4.6.1.000 -release      OCT 24, 2017; 10:37:35
                                                                                
*RUN   5        : P04/22                    MZCER046 ANBU1982    5              
 MODEL          : MZCER046 - Maize                                              
 EXPERIMENT     : ANBU1982 MZ  Analisis a침os de bajo rendimiento Buga          
 DATA PATH      : C:\DSSAT46\maize\                                             
 TREATMENT  5   : P04/22                    MZCER046                            
                                                                                
                                                                                
 CROP           : Maize            CULTIVAR : DK7088           ECOTYPE :IB0001  
 STARTING DATE  : MAR 23 1982                                                   
 PLANTING DATE  : APR 22 1982        PLANTS/m2 :  6.2     ROW SPACING :  80.cm  
 WEATHER        : CUNI   1982                                                   
 SOIL           : CCBUGA2017     TEXTURE : CL    -   Suelo Buga MADR Fase I     
 SOIL INITIAL C : DEPTH: 90cm EXTR. H2O: 83.9mm  NO3:  0.0kg/ha  NH4:  0.0kg/ha 
 WATER BALANCE  : RAINFED                                                       
 IRRIGATION     : NOT IRRIGATED                                                 
 NITROGEN BAL.  : SOIL-N & N-UPTAKE SIMULATION; NO N-FIXATION                   
 N-FERTILIZER   :      161 kg/ha IN     5 APPLICATIONS                          
 RESIDUE/MANURE : INITIAL :     0 kg/ha ;       0 kg/ha IN     0 APPLICATIONS   
 ENVIRONM. OPT. : DAYL=    0.00  SRAD=    0.00  TMAX=    0.00  TMIN=    0.00    
                  RAIN=    0.00  CO2 =    0.00  DEW =    0.00  WIND=    0.00    
 SIMULATION OPT : WATER   :Y  NITROGEN:Y  N-FIX:N  PHOSPH :N  PESTS  :N         
                  PHOTO   :C  ET      :R  INFIL:S  HYDROL :R  SOM    :G         
                  CO2 341ppm  NSWIT   :1  EVAP :S  SOIL   :2  STEMP  :D         
 MANAGEMENT OPT : PLANTING:R  IRRIG   :N  FERT :D  RESIDUE:R  HARVEST:M         
                  WEATHER :M  TILLAGE :N                                        
                                                                                
*SUMMARY OF SOIL AND GENETIC INPUT PARAMETERS                                   
                                                                                
   SOIL LOWER UPPER   SAT  EXTR  INIT   ROOT   BULK     pH    NO3    NH4    ORG 
  DEPTH LIMIT LIMIT    SW    SW    SW   DIST   DENS                          C  
   cm   cm3/cm3    cm3/cm3    cm3/cm3         g/cm3         ugN/g  ugN/g     %  
------------------------------------------------------------------------------- 
  0-  5 0.215 0.331 0.341 0.116 0.331   1.00   1.68   6.70   0.00   0.00   0.75 
  5- 15 0.215 0.331 0.341 0.116 0.331   1.00   1.68   6.70   0.00   0.00   0.75 
 15- 25 0.215 0.331 0.341 0.116 0.331   1.00   1.68   6.70   0.00   0.00   0.75 
 25- 35 0.181 0.291 0.364 0.110 0.291   0.50   1.61   7.20   0.00   0.00   0.53 
 35- 45 0.181 0.291 0.364 0.110 0.291   0.50   1.61   7.20   0.00   0.00   0.53 
 45- 67 0.096 0.169 0.404 0.073 0.169   0.27   1.51   7.00   0.00   0.00   0.05 
 67- 90 0.096 0.169 0.404 0.073 0.169   0.27   1.51   7.00   0.00   0.00   0.05 
                                                                                
TOT- 90  13.3  21.7  34.0   8.4  21.7  <--cm   -  kg/ha-->    0.0    0.0  51964 
SOIL ALBEDO    : 0.09      EVAPORATION LIMIT : 6.00         MIN. FACTOR  : 1.00 
RUNOFF CURVE # :76.00      DRAINAGE RATE     : 0.60         FERT. FACTOR : 1.00 
                                                                                
 Maize      CULTIVAR :CI0004-DK7088             ECOTYPE :IB0001                 
 P1     : 229.00  P2     : 0.3000  P5     : 971.00                              
 G2     : 957.00  G3     :  7.500  PHINT  : 45.000                              


*SIMULATED CROP AND SOIL STATUS AT MAIN DEVELOPMENT STAGES

 RUN NO.     5     P04/22                  

        CROP GROWTH     BIOMASS         LEAF   CROP N     STRESS      STRESS                                           
   DATE  AGE STAGE        kg/ha    LAI   NUM  kg/ha  %   H2O  Nitr Phos1 Phos2  RSTG                                   
 ------  --- ----------   -----  -----  ----  ---  ---  ----  ----  ----  ----  ----                                   
 23 MAR    0 Start Sim        0   0.00   0.0    0  0.0  0.00  0.00  0.00  0.00     7
 22 APR    0 Sowing           0   0.00   0.0    0  0.0  0.00  0.00  0.00  0.00     8
 23 APR    1 Germinate        0   0.00   0.0    0  0.0  0.00  0.00  0.00  0.00     9
 28 APR    6 Emergence       25   0.00   2.0    1  4.4  0.00  0.01  0.00  0.00     1
 11 MAY   19 End Juveni      62   0.14   7.6    2  3.3  0.00  0.00  0.00  0.00     2
 18 MAY   26 Floral Ini     225   0.43  10.3    8  3.6  0.00  0.00  0.00  0.00     3
 24 JUN   63 75% Silkin    5671   3.05  21.7  116  2.0  0.10  0.00  0.00  0.00     4
  4 JUL   73 Beg Gr Fil    6109   2.10  21.7  117  1.9  0.82  0.00  0.00  0.00     5
 17 AUG  117 End Gr Fil    7366   0.38  21.7  117  1.6  0.80  0.00  0.00  0.00     6
 19 AUG  119 Maturity      7366   0.38  21.7  117  1.6  0.00  0.00  0.00  0.00    10
 19 AUG  119 Harvest       7366   0.38  21.7  117  1.6  0.00  0.00  0.00  0.00    10


*MAIN GROWTH AND DEVELOPMENT VARIABLES

@     VARIABLE                                         SIMULATED     MEASURED
      --------                                         ---------     --------
      Anthesis day (dap)                                      63          -99
      Physiological maturity day (dap)                       119          -99
      Yield at harvest maturity (kg [dm]/ha)                2260          -99
      Number at maturity (no/m2)                            1205          -99
      Unit wt at maturity (g [dm]/unit)                   0.1876          -99
      Number at maturity (no/unit)                         194.3          -99
      Tops weight at maturity (kg [dm]/ha)                  7366          -99
      By-product produced (stalk) at maturity (kg[dm]/ha    5158          -99
      Leaf area index, maximum                              3.10          -99
      Harvest index at maturity                            0.307          -99
      Grain N at maturity (kg/ha)                             42          -99
      Tops N at maturity (kg/ha)                             117          -99
      Stem N at maturity (kg/ha)                              75          -99
      Grain N at maturity (%)                                1.9          -99
      Tops weight at anthesis (kg [dm]/ha)                  5539          -99
      Tops N at anthesis (kg/ha)                             115          -99
      Leaf number per stem at maturity                     21.69          -99
      Emergence day (dap)                                      6          -99


*ENVIRONMENTAL AND STRESS FACTORS

 |-----Development Phase------|--------------------------------------Environment--------------------------------------|-----------------Stress-----------------|
                              |---------------Average--------------|-----Cumulative-----|--------Count of days--------|          (0=Min, 1=Max Stress)         |
                         Time  Temp  Temp  Temp Solar Photop                Evapo    Pot TMIN TMIN TMAX TMAX TMAX RAIN|----Water----|---Nitrogen--|-Phosphorus-|
                         Span   Max   Min  Mean   Rad  [day]    CO2   Rain  Trans     ET   <    <    >    >    >    >   Photo         Photo         Photo
                         days    邂    邂    邂 MJ/m2     hr    ppm     mm     mm     mm  0邂  2邂 30邂 32邂 34邂  0mm  synth Growth  synth Growth  synth Growth
----------------------------------------------------------------------------------------------------------------------------------------------------------------
 Emergence-End Juvenile    13  29.4  19.8  24.6  12.4  24.00  340.9   84.5   37.8   44.8    0    0    5    0    0    8  0.000  0.000  0.002  0.005  0.000  0.000
 End Juvenil-Floral Init    7  30.4  19.5  24.9  15.7  24.00  340.9   57.0   20.4   30.2    0    0    4    0    0    5  0.000  0.000  0.000  0.001  0.000  0.000
 Floral Init-End Lf Grow   37  29.8  19.2  24.5  15.3  24.00  341.0  127.1  134.0  140.1    0    0   13    0    0   18  0.040  0.085  0.000  0.000  0.000  0.000
 End Lf Grth-Beg Grn Fil   10  31.6  18.6  25.1  18.1  24.00  341.1    0.0   17.4   43.7    0    0    8    3    1    0  0.670  0.780  0.000  0.000  0.000  0.000
 Grain Filling Phase       44  32.5  18.2  25.3  19.2  24.00  341.1   65.5   54.9  217.9    0    0   42   24    8   11  0.782  0.825  0.000  0.000  0.000  0.000


 Planting to Harvest      119  31.1  18.9  25.0  16.8  24.00  341.0  338.8  280.7  514.9    0    0   79   30   10   46  0.358  0.397  0.000  0.001  0.000  0.000
----------------------------------------------------------------------------------------------------------------------------------------------------------------


*Resource Productivity
 Growing season length: 119 days 

 Precipitation during growing season       338.8 mm[rain]
   Dry Matter Productivity                  2.17 kg[DM]/m3[rain]          =   21.7 kg[DM]/ha per mm[rain]
   Yield Productivity                       0.67 kg[grain yield]/m3[rain] =    6.7 kg[yield]/ha per mm[rain]

 Evapotranspiration during growing season  280.7 mm[ET]
   Dry Matter Productivity                  2.62 kg[DM]/m3[ET]            =   26.2 kg[DM]/ha per mm[ET]
   Yield Productivity                       0.81 kg[grain yield]/m3[ET]   =    8.1 kg[yield]/ha per mm[ET]

 Transpiration during growing season       132.8 mm[EP]
   Dry Matter Productivity                  5.55 kg[DM]/m3[EP]            =   55.5 kg[DM]/ha per mm[EP]
   Yield Productivity                       1.70 kg[grain yield]/m3[EP]   =   17.0 kg[yield]/ha per mm[EP]

 N applied during growing season            161. kg[N applied]/ha
   Dry Matter Productivity                  45.8 kg[DM]/kg[N applied]
   Yield Productivity                       14.0 kg[yield]/kg[N applied]

 N uptake during growing season              126 kg[N uptake]/ha
   Dry Matter Productivity                  58.5 kg[DM]/kg[N uptake]
   Yield Productivity                       17.9 kg[yield]/kg[N uptake]

--------------------------------------------------------------------------------------------------------------

                     Maize YIELD :     2260 kg/ha    [Dry weight] 

**************************************************************************************************************

*DSSAT Cropping System Model Ver. 4.6.1.000 -release      OCT 24, 2017; 10:37:35
                                                                                
*RUN   6        : P04/27                    MZCER046 ANBU1982    6              
 MODEL          : MZCER046 - Maize                                              
 EXPERIMENT     : ANBU1982 MZ  Analisis a침os de bajo rendimiento Buga          
 DATA PATH      : C:\DSSAT46\maize\                                             
 TREATMENT  6   : P04/27                    MZCER046                            
                                                                                
                                                                                
 CROP           : Maize            CULTIVAR : DK7088           ECOTYPE :IB0001  
 STARTING DATE  : MAR 28 1982                                                   
 PLANTING DATE  : APR 27 1982        PLANTS/m2 :  6.2     ROW SPACING :  80.cm  
 WEATHER        : CUNI   1982                                                   
 SOIL           : CCBUGA2017     TEXTURE : CL    -   Suelo Buga MADR Fase I     
 SOIL INITIAL C : DEPTH: 90cm EXTR. H2O: 83.9mm  NO3:  0.0kg/ha  NH4:  0.0kg/ha 
 WATER BALANCE  : RAINFED                                                       
 IRRIGATION     : NOT IRRIGATED                                                 
 NITROGEN BAL.  : SOIL-N & N-UPTAKE SIMULATION; NO N-FIXATION                   
 N-FERTILIZER   :      161 kg/ha IN     5 APPLICATIONS                          
 RESIDUE/MANURE : INITIAL :     0 kg/ha ;       0 kg/ha IN     0 APPLICATIONS   
 ENVIRONM. OPT. : DAYL=    0.00  SRAD=    0.00  TMAX=    0.00  TMIN=    0.00    
                  RAIN=    0.00  CO2 =    0.00  DEW =    0.00  WIND=    0.00    
 SIMULATION OPT : WATER   :Y  NITROGEN:Y  N-FIX:N  PHOSPH :N  PESTS  :N         
                  PHOTO   :C  ET      :R  INFIL:S  HYDROL :R  SOM    :G         
                  CO2 341ppm  NSWIT   :1  EVAP :S  SOIL   :2  STEMP  :D         
 MANAGEMENT OPT : PLANTING:R  IRRIG   :N  FERT :D  RESIDUE:R  HARVEST:M         
                  WEATHER :M  TILLAGE :N                                        
                                                                                
*SUMMARY OF SOIL AND GENETIC INPUT PARAMETERS                                   
                                                                                
   SOIL LOWER UPPER   SAT  EXTR  INIT   ROOT   BULK     pH    NO3    NH4    ORG 
  DEPTH LIMIT LIMIT    SW    SW    SW   DIST   DENS                          C  
   cm   cm3/cm3    cm3/cm3    cm3/cm3         g/cm3         ugN/g  ugN/g     %  
------------------------------------------------------------------------------- 
  0-  5 0.215 0.331 0.341 0.116 0.331   1.00   1.68   6.70   0.00   0.00   0.75 
  5- 15 0.215 0.331 0.341 0.116 0.331   1.00   1.68   6.70   0.00   0.00   0.75 
 15- 25 0.215 0.331 0.341 0.116 0.331   1.00   1.68   6.70   0.00   0.00   0.75 
 25- 35 0.181 0.291 0.364 0.110 0.291   0.50   1.61   7.20   0.00   0.00   0.53 
 35- 45 0.181 0.291 0.364 0.110 0.291   0.50   1.61   7.20   0.00   0.00   0.53 
 45- 67 0.096 0.169 0.404 0.073 0.169   0.27   1.51   7.00   0.00   0.00   0.05 
 67- 90 0.096 0.169 0.404 0.073 0.169   0.27   1.51   7.00   0.00   0.00   0.05 
                                                                                
TOT- 90  13.3  21.7  34.0   8.4  21.7  <--cm   -  kg/ha-->    0.0    0.0  51964 
SOIL ALBEDO    : 0.09      EVAPORATION LIMIT : 6.00         MIN. FACTOR  : 1.00 
RUNOFF CURVE # :76.00      DRAINAGE RATE     : 0.60         FERT. FACTOR : 1.00 
                                                                                
 Maize      CULTIVAR :CI0004-DK7088             ECOTYPE :IB0001                 
 P1     : 229.00  P2     : 0.3000  P5     : 971.00                              
 G2     : 957.00  G3     :  7.500  PHINT  : 45.000                              


*SIMULATED CROP AND SOIL STATUS AT MAIN DEVELOPMENT STAGES

 RUN NO.     6     P04/27                  

        CROP GROWTH     BIOMASS         LEAF   CROP N     STRESS      STRESS                                           
   DATE  AGE STAGE        kg/ha    LAI   NUM  kg/ha  %   H2O  Nitr Phos1 Phos2  RSTG                                   
 ------  --- ----------   -----  -----  ----  ---  ---  ----  ----  ----  ----  ----                                   
 28 MAR    0 Start Sim        0   0.00   0.0    0  0.0  0.00  0.00  0.00  0.00     7
 27 APR    0 Sowing           0   0.00   0.0    0  0.0  0.00  0.00  0.00  0.00     8
 28 APR    1 Germinate        0   0.00   0.0    0  0.0  0.00  0.00  0.00  0.00     9
  3 MAY    6 Emergence       25   0.00   2.1    1  4.4  0.00  0.01  0.00  0.00     1
 16 MAY   19 End Juveni      76   0.17   7.7    3  3.4  0.00  0.00  0.00  0.00     2
 23 MAY   26 Floral Ini     215   0.42  10.3    8  3.6  0.00  0.00  0.00  0.00     3
 29 JUN   63 75% Silkin    5071   2.38  21.3  106  2.1  0.24  0.00  0.00  0.00     4
  9 JUL   73 Beg Gr Fil    6351   1.98  21.3  106  1.7  0.48  0.00  0.00  0.00     5
 21 AUG  116 End Gr Fil    7811   0.39  21.3  106  1.4  0.78  0.00  0.00  0.00     6
 23 AUG  118 Maturity      7811   0.39  21.3  106  1.4  0.52  0.00  0.00  0.00    10
 23 AUG  118 Harvest       7811   0.39  21.3  106  1.4  0.00  0.00  0.00  0.00    10


*MAIN GROWTH AND DEVELOPMENT VARIABLES

@     VARIABLE                                         SIMULATED     MEASURED
      --------                                         ---------     --------
      Anthesis day (dap)                                      63          -99
      Physiological maturity day (dap)                       118          -99
      Yield at harvest maturity (kg [dm]/ha)                2633          -99
      Number at maturity (no/m2)                            2049          -99
      Unit wt at maturity (g [dm]/unit)                   0.1285          -99
      Number at maturity (no/unit)                         330.5          -99
      Tops weight at maturity (kg [dm]/ha)                  7811          -99
      By-product produced (stalk) at maturity (kg[dm]/ha    5230          -99
      Leaf area index, maximum                              2.84          -99
      Harvest index at maturity                            0.337          -99
      Grain N at maturity (kg/ha)                             49          -99
      Tops N at maturity (kg/ha)                             106          -99
      Stem N at maturity (kg/ha)                              57          -99
      Grain N at maturity (%)                                1.9          -99
      Tops weight at anthesis (kg [dm]/ha)                  4884          -99
      Tops N at anthesis (kg/ha)                             105          -99
      Leaf number per stem at maturity                     21.34          -99
      Emergence day (dap)                                      6          -99


*ENVIRONMENTAL AND STRESS FACTORS

 |-----Development Phase------|--------------------------------------Environment--------------------------------------|-----------------Stress-----------------|
                              |---------------Average--------------|-----Cumulative-----|--------Count of days--------|          (0=Min, 1=Max Stress)         |
                         Time  Temp  Temp  Temp Solar Photop                Evapo    Pot TMIN TMIN TMAX TMAX TMAX RAIN|----Water----|---Nitrogen--|-Phosphorus-|
                         Span   Max   Min  Mean   Rad  [day]    CO2   Rain  Trans     ET   <    <    >    >    >    >   Photo         Photo         Photo
                         days    邂    邂    邂 MJ/m2     hr    ppm     mm     mm     mm  0邂  2邂 30邂 32邂 34邂  0mm  synth Growth  synth Growth  synth Growth
----------------------------------------------------------------------------------------------------------------------------------------------------------------
 Emergence-End Juvenile    13  30.1  19.9  25.0  13.6  24.00  340.9   37.1   36.7   49.6    0    0    7    0    0    8  0.000  0.000  0.002  0.005  0.000  0.000
 End Juvenil-Floral Init    7  28.8  19.3  24.0  14.1  24.00  341.0  100.4   26.5   26.5    0    0    0    0    0    6  0.000  0.000  0.000  0.001  0.000  0.000
 Floral Init-End Lf Grow   37  30.1  19.1  24.6  16.0  24.00  341.0   67.8  121.5  146.3    0    0   16    0    0   13  0.165  0.220  0.000  0.000  0.000  0.000
 End Lf Grth-Beg Grn Fil   10  31.8  18.3  25.1  18.3  24.00  341.1   25.6   31.0   44.7    0    0   10    3    1    2  0.328  0.453  0.000  0.000  0.000  0.000
 Grain Filling Phase       43  32.8  18.3  25.5  19.5  24.00  341.1   39.9   50.8  218.3    0    0   41   28   10    9  0.757  0.800  0.000  0.000  0.000  0.000


 Planting to Harvest      118  31.2  18.8  25.0  17.0  24.00  341.0  336.7  283.9  518.7    0    0   79   33   12   44  0.358  0.403  0.000  0.001  0.000  0.000
----------------------------------------------------------------------------------------------------------------------------------------------------------------


*Resource Productivity
 Growing season length: 118 days 

 Precipitation during growing season       336.7 mm[rain]
   Dry Matter Productivity                  2.32 kg[DM]/m3[rain]          =   23.2 kg[DM]/ha per mm[rain]
   Yield Productivity                       0.78 kg[grain yield]/m3[rain] =    7.8 kg[yield]/ha per mm[rain]

 Evapotranspiration during growing season  283.9 mm[ET]
   Dry Matter Productivity                  2.75 kg[DM]/m3[ET]            =   27.5 kg[DM]/ha per mm[ET]
   Yield Productivity                       0.93 kg[grain yield]/m3[ET]   =    9.3 kg[yield]/ha per mm[ET]

 Transpiration during growing season       127.7 mm[EP]
   Dry Matter Productivity                  6.12 kg[DM]/m3[EP]            =   61.2 kg[DM]/ha per mm[EP]
   Yield Productivity                       2.06 kg[grain yield]/m3[EP]   =   20.6 kg[yield]/ha per mm[EP]

 N applied during growing season            161. kg[N applied]/ha
   Dry Matter Productivity                  48.5 kg[DM]/kg[N applied]
   Yield Productivity                       16.4 kg[yield]/kg[N applied]

 N uptake during growing season              114 kg[N uptake]/ha
   Dry Matter Productivity                  68.5 kg[DM]/kg[N uptake]
   Yield Productivity                       23.1 kg[yield]/kg[N uptake]

--------------------------------------------------------------------------------------------------------------

                     Maize YIELD :     2633 kg/ha    [Dry weight] 

**************************************************************************************************************

*DSSAT Cropping System Model Ver. 4.6.1.000 -release      OCT 24, 2017; 10:37:35
                                                                                
*RUN   7        : P05/02                    MZCER046 ANBU1982    7              
 MODEL          : MZCER046 - Maize                                              
 EXPERIMENT     : ANBU1982 MZ  Analisis a침os de bajo rendimiento Buga          
 DATA PATH      : C:\DSSAT46\maize\                                             
 TREATMENT  7   : P05/02                    MZCER046                            
                                                                                
                                                                                
 CROP           : Maize            CULTIVAR : DK7088           ECOTYPE :IB0001  
 STARTING DATE  : APR  2 1982                                                   
 PLANTING DATE  : MAY  2 1982        PLANTS/m2 :  6.2     ROW SPACING :  80.cm  
 WEATHER        : CUNI   1982                                                   
 SOIL           : CCBUGA2017     TEXTURE : CL    -   Suelo Buga MADR Fase I     
 SOIL INITIAL C : DEPTH: 90cm EXTR. H2O: 83.9mm  NO3:  0.0kg/ha  NH4:  0.0kg/ha 
 WATER BALANCE  : RAINFED                                                       
 IRRIGATION     : NOT IRRIGATED                                                 
 NITROGEN BAL.  : SOIL-N & N-UPTAKE SIMULATION; NO N-FIXATION                   
 N-FERTILIZER   :      161 kg/ha IN     5 APPLICATIONS                          
 RESIDUE/MANURE : INITIAL :     0 kg/ha ;       0 kg/ha IN     0 APPLICATIONS   
 ENVIRONM. OPT. : DAYL=    0.00  SRAD=    0.00  TMAX=    0.00  TMIN=    0.00    
                  RAIN=    0.00  CO2 =    0.00  DEW =    0.00  WIND=    0.00    
 SIMULATION OPT : WATER   :Y  NITROGEN:Y  N-FIX:N  PHOSPH :N  PESTS  :N         
                  PHOTO   :C  ET      :R  INFIL:S  HYDROL :R  SOM    :G         
                  CO2 341ppm  NSWIT   :1  EVAP :S  SOIL   :2  STEMP  :D         
 MANAGEMENT OPT : PLANTING:R  IRRIG   :N  FERT :D  RESIDUE:R  HARVEST:M         
                  WEATHER :M  TILLAGE :N                                        
                                                                                
*SUMMARY OF SOIL AND GENETIC INPUT PARAMETERS                                   
                                                                                
   SOIL LOWER UPPER   SAT  EXTR  INIT   ROOT   BULK     pH    NO3    NH4    ORG 
  DEPTH LIMIT LIMIT    SW    SW    SW   DIST   DENS                          C  
   cm   cm3/cm3    cm3/cm3    cm3/cm3         g/cm3         ugN/g  ugN/g     %  
------------------------------------------------------------------------------- 
  0-  5 0.215 0.331 0.341 0.116 0.331   1.00   1.68   6.70   0.00   0.00   0.75 
  5- 15 0.215 0.331 0.341 0.116 0.331   1.00   1.68   6.70   0.00   0.00   0.75 
 15- 25 0.215 0.331 0.341 0.116 0.331   1.00   1.68   6.70   0.00   0.00   0.75 
 25- 35 0.181 0.291 0.364 0.110 0.291   0.50   1.61   7.20   0.00   0.00   0.53 
 35- 45 0.181 0.291 0.364 0.110 0.291   0.50   1.61   7.20   0.00   0.00   0.53 
 45- 67 0.096 0.169 0.404 0.073 0.169   0.27   1.51   7.00   0.00   0.00   0.05 
 67- 90 0.096 0.169 0.404 0.073 0.169   0.27   1.51   7.00   0.00   0.00   0.05 
                                                                                
TOT- 90  13.3  21.7  34.0   8.4  21.7  <--cm   -  kg/ha-->    0.0    0.0  51964 
SOIL ALBEDO    : 0.09      EVAPORATION LIMIT : 6.00         MIN. FACTOR  : 1.00 
RUNOFF CURVE # :76.00      DRAINAGE RATE     : 0.60         FERT. FACTOR : 1.00 
                                                                                
 Maize      CULTIVAR :CI0004-DK7088             ECOTYPE :IB0001                 
 P1     : 229.00  P2     : 0.3000  P5     : 971.00                              
 G2     : 957.00  G3     :  7.500  PHINT  : 45.000                              


*SIMULATED CROP AND SOIL STATUS AT MAIN DEVELOPMENT STAGES

 RUN NO.     7     P05/02                  

        CROP GROWTH     BIOMASS         LEAF   CROP N     STRESS      STRESS                                           
   DATE  AGE STAGE        kg/ha    LAI   NUM  kg/ha  %   H2O  Nitr Phos1 Phos2  RSTG                                   
 ------  --- ----------   -----  -----  ----  ---  ---  ----  ----  ----  ----  ----                                   
  2 APR    0 Start Sim        0   0.00   0.0    0  0.0  0.00  0.00  0.00  0.00     7
  2 MAY    0 Sowing           0   0.00   0.0    0  0.0  0.00  0.00  0.00  0.00     8
  3 MAY    1 Germinate        0   0.00   0.0    0  0.0  0.00  0.00  0.00  0.00     9
  8 MAY    6 Emergence       25   0.00   2.0    1  4.4  0.00  0.01  0.00  0.00     1
 21 MAY   19 End Juveni      69   0.15   7.6    2  3.5  0.00  0.00  0.00  0.00     2
 28 MAY   26 Floral Ini     245   0.46  10.2    9  3.6  0.00  0.00  0.00  0.00     3
  3 JUL   62 75% Silkin    3978   1.82  21.3   91  2.3  0.36  0.00  0.00  0.00     4
 13 JUL   72 Beg Gr Fil    5196   1.54  21.3   91  1.8  0.43  0.00  0.00  0.00     5
 25 AUG  115 End Gr Fil    6621   0.34  21.3   91  1.4  0.76  0.00  0.00  0.00     6
 27 AUG  117 Maturity      6621   0.34  21.3   91  1.4  0.85  0.00  0.00  0.00    10
 27 AUG  117 Harvest       6621   0.34  21.3   91  1.4  0.00  0.00  0.00  0.00    10


*MAIN GROWTH AND DEVELOPMENT VARIABLES

@     VARIABLE                                         SIMULATED     MEASURED
      --------                                         ---------     --------
      Anthesis day (dap)                                      62          -99
      Physiological maturity day (dap)                       117          -99
      Yield at harvest maturity (kg [dm]/ha)                2366          -99
      Number at maturity (no/m2)                            1859          -99
      Unit wt at maturity (g [dm]/unit)                   0.1273          -99
      Number at maturity (no/unit)                         299.9          -99
      Tops weight at maturity (kg [dm]/ha)                  6621          -99
      By-product produced (stalk) at maturity (kg[dm]/ha    4303          -99
      Leaf area index, maximum                              2.57          -99
      Harvest index at maturity                            0.357          -99
      Grain N at maturity (kg/ha)                             44          -99
      Tops N at maturity (kg/ha)                              91          -99
      Stem N at maturity (kg/ha)                              48          -99
      Grain N at maturity (%)                                1.9          -99
      Tops weight at anthesis (kg [dm]/ha)                  3912          -99
      Tops N at anthesis (kg/ha)                              91          -99
      Leaf number per stem at maturity                     21.29          -99
      Emergence day (dap)                                      6          -99


*ENVIRONMENTAL AND STRESS FACTORS

 |-----Development Phase------|--------------------------------------Environment--------------------------------------|-----------------Stress-----------------|
                              |---------------Average--------------|-----Cumulative-----|--------Count of days--------|          (0=Min, 1=Max Stress)         |
                         Time  Temp  Temp  Temp Solar Photop                Evapo    Pot TMIN TMIN TMAX TMAX TMAX RAIN|----Water----|---Nitrogen--|-Phosphorus-|
                         Span   Max   Min  Mean   Rad  [day]    CO2   Rain  Trans     ET   <    <    >    >    >    >   Photo         Photo         Photo
                         days    邂    邂    邂 MJ/m2     hr    ppm     mm     mm     mm  0邂  2邂 30邂 32邂 34邂  0mm  synth Growth  synth Growth  synth Growth
----------------------------------------------------------------------------------------------------------------------------------------------------------------
 Emergence-End Juvenile    13  29.6  19.6  24.6  14.5  24.00  340.9   87.9   41.0   52.4    0    0    4    0    0    9  0.000  0.000  0.002  0.005  0.000  0.000
 End Juvenil-Floral Init    7  28.7  19.5  24.1  14.6  24.00  341.0   53.8   27.6   27.6    0    0    0    0    0    5  0.000  0.000  0.000  0.001  0.000  0.000
 Floral Init-End Lf Grow   36  30.5  19.0  24.7  16.3  24.00  341.0   50.6  100.3  144.9    0    0   20    3    1   10  0.277  0.341  0.000  0.000  0.000  0.000
 End Lf Grth-Beg Grn Fil   10  31.2  18.6  24.9  17.9  24.00  341.1   30.6   31.1   44.1    0    0    9    1    0    4  0.311  0.421  0.000  0.000  0.000  0.000
 Grain Filling Phase       43  33.1  18.3  25.7  19.8  24.00  341.1   35.2   50.1  226.1    0    0   42   31   12    8  0.707  0.758  0.000  0.000  0.000  0.000


 Planting to Harvest      117  31.4  18.8  25.1  17.4  24.00  341.0  272.2  272.4  529.6    0    0   80   37   15   40  0.384  0.433  0.000  0.001  0.000  0.000
----------------------------------------------------------------------------------------------------------------------------------------------------------------


*Resource Productivity
 Growing season length: 117 days 

 Precipitation during growing season       272.2 mm[rain]
   Dry Matter Productivity                  2.43 kg[DM]/m3[rain]          =   24.3 kg[DM]/ha per mm[rain]
   Yield Productivity                       0.87 kg[grain yield]/m3[rain] =    8.7 kg[yield]/ha per mm[rain]

 Evapotranspiration during growing season  272.4 mm[ET]
   Dry Matter Productivity                  2.43 kg[DM]/m3[ET]            =   24.3 kg[DM]/ha per mm[ET]
   Yield Productivity                       0.87 kg[grain yield]/m3[ET]   =    8.7 kg[yield]/ha per mm[ET]

 Transpiration during growing season       111.0 mm[EP]
   Dry Matter Productivity                  5.97 kg[DM]/m3[EP]            =   59.7 kg[DM]/ha per mm[EP]
   Yield Productivity                       2.13 kg[grain yield]/m3[EP]   =   21.3 kg[yield]/ha per mm[EP]

 N applied during growing season            161. kg[N applied]/ha
   Dry Matter Productivity                  41.1 kg[DM]/kg[N applied]
   Yield Productivity                       14.7 kg[yield]/kg[N applied]

 N uptake during growing season               99 kg[N uptake]/ha
   Dry Matter Productivity                  66.9 kg[DM]/kg[N uptake]
   Yield Productivity                       23.9 kg[yield]/kg[N uptake]

--------------------------------------------------------------------------------------------------------------

                     Maize YIELD :     2366 kg/ha    [Dry weight] 

**************************************************************************************************************

*DSSAT Cropping System Model Ver. 4.6.1.000 -release      OCT 24, 2017; 10:37:35
                                                                                
*RUN   8        : P05/07                    MZCER046 ANBU1982    8              
 MODEL          : MZCER046 - Maize                                              
 EXPERIMENT     : ANBU1982 MZ  Analisis a침os de bajo rendimiento Buga          
 DATA PATH      : C:\DSSAT46\maize\                                             
 TREATMENT  8   : P05/07                    MZCER046                            
                                                                                
                                                                                
 CROP           : Maize            CULTIVAR : DK7088           ECOTYPE :IB0001  
 STARTING DATE  : APR  7 1982                                                   
 PLANTING DATE  : MAY  7 1982        PLANTS/m2 :  6.2     ROW SPACING :  80.cm  
 WEATHER        : CUNI   1982                                                   
 SOIL           : CCBUGA2017     TEXTURE : CL    -   Suelo Buga MADR Fase I     
 SOIL INITIAL C : DEPTH: 90cm EXTR. H2O: 83.9mm  NO3:  0.0kg/ha  NH4:  0.0kg/ha 
 WATER BALANCE  : RAINFED                                                       
 IRRIGATION     : NOT IRRIGATED                                                 
 NITROGEN BAL.  : SOIL-N & N-UPTAKE SIMULATION; NO N-FIXATION                   
 N-FERTILIZER   :      161 kg/ha IN     5 APPLICATIONS                          
 RESIDUE/MANURE : INITIAL :     0 kg/ha ;       0 kg/ha IN     0 APPLICATIONS   
 ENVIRONM. OPT. : DAYL=    0.00  SRAD=    0.00  TMAX=    0.00  TMIN=    0.00    
                  RAIN=    0.00  CO2 =    0.00  DEW =    0.00  WIND=    0.00    
 SIMULATION OPT : WATER   :Y  NITROGEN:Y  N-FIX:N  PHOSPH :N  PESTS  :N         
                  PHOTO   :C  ET      :R  INFIL:S  HYDROL :R  SOM    :G         
                  CO2 341ppm  NSWIT   :1  EVAP :S  SOIL   :2  STEMP  :D         
 MANAGEMENT OPT : PLANTING:R  IRRIG   :N  FERT :D  RESIDUE:R  HARVEST:M         
                  WEATHER :M  TILLAGE :N                                        
                                                                                
*SUMMARY OF SOIL AND GENETIC INPUT PARAMETERS                                   
                                                                                
   SOIL LOWER UPPER   SAT  EXTR  INIT   ROOT   BULK     pH    NO3    NH4    ORG 
  DEPTH LIMIT LIMIT    SW    SW    SW   DIST   DENS                          C  
   cm   cm3/cm3    cm3/cm3    cm3/cm3         g/cm3         ugN/g  ugN/g     %  
------------------------------------------------------------------------------- 
  0-  5 0.215 0.331 0.341 0.116 0.331   1.00   1.68   6.70   0.00   0.00   0.75 
  5- 15 0.215 0.331 0.341 0.116 0.331   1.00   1.68   6.70   0.00   0.00   0.75 
 15- 25 0.215 0.331 0.341 0.116 0.331   1.00   1.68   6.70   0.00   0.00   0.75 
 25- 35 0.181 0.291 0.364 0.110 0.291   0.50   1.61   7.20   0.00   0.00   0.53 
 35- 45 0.181 0.291 0.364 0.110 0.291   0.50   1.61   7.20   0.00   0.00   0.53 
 45- 67 0.096 0.169 0.404 0.073 0.169   0.27   1.51   7.00   0.00   0.00   0.05 
 67- 90 0.096 0.169 0.404 0.073 0.169   0.27   1.51   7.00   0.00   0.00   0.05 
                                                                                
TOT- 90  13.3  21.7  34.0   8.4  21.7  <--cm   -  kg/ha-->    0.0    0.0  51964 
SOIL ALBEDO    : 0.09      EVAPORATION LIMIT : 6.00         MIN. FACTOR  : 1.00 
RUNOFF CURVE # :76.00      DRAINAGE RATE     : 0.60         FERT. FACTOR : 1.00 
                                                                                
 Maize      CULTIVAR :CI0004-DK7088             ECOTYPE :IB0001                 
 P1     : 229.00  P2     : 0.3000  P5     : 971.00                              
 G2     : 957.00  G3     :  7.500  PHINT  : 45.000                              


*SIMULATED CROP AND SOIL STATUS AT MAIN DEVELOPMENT STAGES

 RUN NO.     8     P05/07                  

        CROP GROWTH     BIOMASS         LEAF   CROP N     STRESS      STRESS                                           
   DATE  AGE STAGE        kg/ha    LAI   NUM  kg/ha  %   H2O  Nitr Phos1 Phos2  RSTG                                   
 ------  --- ----------   -----  -----  ----  ---  ---  ----  ----  ----  ----  ----                                   
  7 APR    0 Start Sim        0   0.00   0.0    0  0.0  0.00  0.00  0.00  0.00     7
  7 MAY    0 Sowing           0   0.00   0.0    0  0.0  0.00  0.00  0.00  0.00     8
  8 MAY    1 Germinate        0   0.00   0.0    0  0.0  0.00  0.00  0.00  0.00     9
 13 MAY    6 Emergence       25   0.00   2.1    1  4.4  0.00  0.01  0.00  0.00     1
 26 MAY   19 End Juveni      68   0.15   7.5    2  3.3  0.00  0.00  0.00  0.00     2
  2 JUN   26 Floral Ini     261   0.49  10.2    9  3.6  0.00  0.00  0.00  0.00     3
  8 JUL   62 75% Silkin    5185   2.56  21.4  104  2.0  0.27  0.01  0.00  0.00     4
 18 JUL   72 Beg Gr Fil    5558   1.79  21.4  105  1.9  0.80  0.00  0.00  0.00     5
 29 AUG  114 End Gr Fil    6878   0.37  21.4  105  1.5  0.80  0.00  0.00  0.00     6
  1 SEP  117 Maturity      6878   0.37  21.4  105  1.5  0.32  0.00  0.00  0.00    10
[...]
 NITROGEN BAL.  : SOIL-N & N-UPTAKE SIMULATION; NO N-FIXATION                   
 N-FERTILIZER   :      161 kg/ha IN     5 APPLICATIONS                          
 RESIDUE/MANURE : INITIAL :     0 kg/ha ;       0 kg/ha IN     0 APPLICATIONS   
 ENVIRONM. OPT. : DAYL=    0.00  SRAD=    0.00  TMAX=    0.00  TMIN=    0.00    
                  RAIN=    0.00  CO2 =    0.00  DEW =    0.00  WIND=    0.00    
 SIMULATION OPT : WATER   :Y  NITROGEN:Y  N-FIX:N  PHOSPH :N  PESTS  :N         
                  PHOTO   :C  ET      :R  INFIL:S  HYDROL :R  SOM    :G         
                  CO2 341ppm  NSWIT   :1  EVAP :S  SOIL   :2  STEMP  :D         
 MANAGEMENT OPT : PLANTING:R  IRRIG   :N  FERT :D  RESIDUE:R  HARVEST:M         
                  WEATHER :M  TILLAGE :N                                        
                                                                                
*SUMMARY OF SOIL AND GENETIC INPUT PARAMETERS                                   
                                                                                
   SOIL LOWER UPPER   SAT  EXTR  INIT   ROOT   BULK     pH    NO3    NH4    ORG 
  DEPTH LIMIT LIMIT    SW    SW    SW   DIST   DENS                          C  
   cm   cm3/cm3    cm3/cm3    cm3/cm3         g/cm3         ugN/g  ugN/g     %  
------------------------------------------------------------------------------- 
  0-  5 0.215 0.331 0.341 0.116 0.331   1.00   1.68   6.70   0.00   0.00   0.75 
  5- 15 0.215 0.331 0.341 0.116 0.331   1.00   1.68   6.70   0.00   0.00   0.75 
 15- 25 0.215 0.331 0.341 0.116 0.331   1.00   1.68   6.70   0.00   0.00   0.75 
 25- 35 0.181 0.291 0.364 0.110 0.291   0.50   1.61   7.20   0.00   0.00   0.53 
 35- 45 0.181 0.291 0.364 0.110 0.291   0.50   1.61   7.20   0.00   0.00   0.53 
 45- 67 0.096 0.169 0.404 0.073 0.169   0.27   1.51   7.00   0.00   0.00   0.05 
 67- 90 0.096 0.169 0.404 0.073 0.169   0.27   1.51   7.00   0.00   0.00   0.05 
                                                                                
TOT- 90  13.3  21.7  34.0   8.4  21.7  <--cm   -  kg/ha-->    0.0    0.0  51964 
SOIL ALBEDO    : 0.09      EVAPORATION LIMIT : 6.00         MIN. FACTOR  : 1.00 
RUNOFF CURVE # :76.00      DRAINAGE RATE     : 0.60         FERT. FACTOR : 1.00 
                                                                                
 Maize      CULTIVAR :CI0004-DK7088             ECOTYPE :IB0001                 
 P1     : 229.00  P2     : 0.3000  P5     : 971.00                              
 G2     : 957.00  G3     :  7.500  PHINT  : 45.000                              


*SIMULATED CROP AND SOIL STATUS AT MAIN DEVELOPMENT STAGES

 RUN NO.    35     P12/14                  

        CROP GROWTH     BIOMASS         LEAF   CROP N     STRESS      STRESS                                           
   DATE  AGE STAGE        kg/ha    LAI   NUM  kg/ha  %   H2O  Nitr Phos1 Phos2  RSTG                                   
 ------  --- ----------   -----  -----  ----  ---  ---  ----  ----  ----  ----  ----                                   
 14 NOV    0 Start Sim        0   0.00   0.0    0  0.0  0.00  0.00  0.00  0.00     7
 14 DEC    0 Sowing           0   0.00   0.0    0  0.0  0.00  0.00  0.00  0.00     8
 15 DEC    1 Germinate        0   0.00   0.0    0  0.0  0.00  0.00  0.00  0.00     9
 20 DEC    6 Emergence       25   0.00   2.1    1  4.4  0.00  0.01  0.00  0.00     1
  2 JAN   19 End Juveni     101   0.22   7.7    3  3.3  0.00  0.00  0.00  0.00     2
  6 JAN   23 Floral Ini     220   0.42   9.3    8  3.6  0.00  0.00  0.00  0.00     3
  4 FEB   52 75% Silkin    1926   0.80  19.6   14  0.7  0.39  0.61  0.00  0.00     4
 14 FEB   62 Beg Gr Fil    2100   0.55  19.6   41  2.0  0.78  0.25  0.00  0.00     5
 24 MAR  100 End Gr Fil    2583   0.13  19.6   41  1.6  0.83  0.00  0.00  0.00     6
 27 MAR  103 Maturity      2583   0.13  19.6   41  1.6  0.00  0.00  0.00  0.00    10
 27 MAR  103 Harvest       2583   0.13  19.6   41  1.6  0.00  0.00  0.00  0.00    10


*MAIN GROWTH AND DEVELOPMENT VARIABLES

@     VARIABLE                                         SIMULATED     MEASURED
      --------                                         ---------     --------
      Anthesis day (dap)                                      52          -99
      Physiological maturity day (dap)                       103          -99
      Yield at harvest maturity (kg [dm]/ha)                 834          -99
      Number at maturity (no/m2)                             620          -99
      Unit wt at maturity (g [dm]/unit)                   0.1344          -99
      Number at maturity (no/unit)                         109.4          -99
      Tops weight at maturity (kg [dm]/ha)                  2583          -99
      By-product produced (stalk) at maturity (kg[dm]/ha    1778          -99
      Leaf area index, maximum                              1.13          -99
      Harvest index at maturity                            0.323          -99
      Grain N at maturity (kg/ha)                             16          -99
      Tops N at maturity (kg/ha)                              41          -99
      Stem N at maturity (kg/ha)                              24          -99
      Grain N at maturity (%)                                1.9          -99
      Tops weight at anthesis (kg [dm]/ha)                  1905          -99
      Tops N at anthesis (kg/ha)                              14          -99
      Leaf number per stem at maturity                     19.59          -99
      Emergence day (dap)                                      6          -99


*ENVIRONMENTAL AND STRESS FACTORS

 |-----Development Phase------|--------------------------------------Environment--------------------------------------|-----------------Stress-----------------|
                              |---------------Average--------------|-----Cumulative-----|--------Count of days--------|          (0=Min, 1=Max Stress)         |
                         Time  Temp  Temp  Temp Solar Photop                Evapo    Pot TMIN TMIN TMAX TMAX TMAX RAIN|----Water----|---Nitrogen--|-Phosphorus-|
                         Span   Max   Min  Mean   Rad  [day]    CO2   Rain  Trans     ET   <    <    >    >    >    >   Photo         Photo         Photo
                         days    邂    邂    邂 MJ/m2     hr    ppm     mm     mm     mm  0邂  2邂 30邂 32邂 34邂  0mm  synth Growth  synth Growth  synth Growth
----------------------------------------------------------------------------------------------------------------------------------------------------------------
 Emergence-End Juvenile    13  30.6  18.6  24.6  17.3   0.00  341.6    2.9   14.0   62.1    0    0    9    3    0    3  0.000  0.000  0.002  0.005  0.000  0.000
 End Juvenil-Floral Init    4  31.3  19.9  25.6  11.7   0.00  341.6    1.2    4.2   12.7    0    0    4    1    0    1  0.000  0.000  0.001  0.002  0.000  0.000
 Floral Init-End Lf Grow   29  33.8  20.4  27.1  17.2   0.00  341.7    2.6   55.5  133.3    0    0   28   24   17    4  0.242  0.357  0.377  0.586  0.000  0.000
 End Lf Grth-Beg Grn Fil   10  32.9  20.5  26.7  17.1   0.00  341.8   16.6   14.2   46.1    0    0   10    7    0    2  0.662  0.775  0.234  0.329  0.000  0.000
 Grain Filling Phase       38  33.9  21.1  27.5  16.3   4.97  342.0   24.6   31.4  176.3    0    0   36   34   22    7  0.762  0.842  0.000  0.000  0.000  0.000


 Planting to Harvest      103  32.9  20.3  26.6  16.6   2.21  341.8  117.5  136.6  471.8    0    0   91   69   39   21  0.417  0.492  0.129  0.198  0.000  0.000
----------------------------------------------------------------------------------------------------------------------------------------------------------------


*Resource Productivity
 Growing season length: 103 days 

 Precipitation during growing season       117.5 mm[rain]
   Dry Matter Productivity                  2.20 kg[DM]/m3[rain]          =   22.0 kg[DM]/ha per mm[rain]
   Yield Productivity                       0.71 kg[grain yield]/m3[rain] =    7.1 kg[yield]/ha per mm[rain]

 Evapotranspiration during growing season  136.6 mm[ET]
   Dry Matter Productivity                  1.89 kg[DM]/m3[ET]            =   18.9 kg[DM]/ha per mm[ET]
   Yield Productivity                       0.61 kg[grain yield]/m3[ET]   =    6.1 kg[yield]/ha per mm[ET]

 Transpiration during growing season        63.7 mm[EP]
   Dry Matter Productivity                  4.06 kg[DM]/m3[EP]            =   40.6 kg[DM]/ha per mm[EP]
   Yield Productivity                       1.31 kg[grain yield]/m3[EP]   =   13.1 kg[yield]/ha per mm[EP]

 N applied during growing season            161. kg[N applied]/ha
   Dry Matter Productivity                  16.0 kg[DM]/kg[N applied]
   Yield Productivity                        5.2 kg[yield]/kg[N applied]

 N uptake during growing season               45 kg[N uptake]/ha
   Dry Matter Productivity                  57.4 kg[DM]/kg[N uptake]
   Yield Productivity                       18.5 kg[yield]/kg[N uptake]

--------------------------------------------------------------------------------------------------------------

                     Maize YIELD :      834 kg/ha    [Dry weight] 

**************************************************************************************************************

*DSSAT Cropping System Model Ver. 4.6.1.000 -release      OCT 24, 2017; 10:37:50
                                                                                
*RUN  36        : P12/19                    MZCER046 ANBU1982   36              
 MODEL          : MZCER046 - Maize                                              
 EXPERIMENT     : ANBU1982 MZ  Analisis a침os de bajo rendimiento Buga          
 DATA PATH      : C:\DSSAT46\maize\                                             
 TREATMENT 36   : P12/19                    MZCER046                            
                                                                                
                                                                                
 CROP           : Maize            CULTIVAR : DK7088           ECOTYPE :IB0001  
 STARTING DATE  : NOV 19 1982                                                   
 PLANTING DATE  : DEC 19 1982        PLANTS/m2 :  6.2     ROW SPACING :  80.cm  
 WEATHER        : CUNI   1982                                                   
 SOIL           : CCBUGA2017     TEXTURE : CL    -   Suelo Buga MADR Fase I     
 SOIL INITIAL C : DEPTH: 90cm EXTR. H2O: 83.9mm  NO3:  0.0kg/ha  NH4:  0.0kg/ha 
 WATER BALANCE  : RAINFED                                                       
 IRRIGATION     : NOT IRRIGATED                                                 
 NITROGEN BAL.  : SOIL-N & N-UPTAKE SIMULATION; NO N-FIXATION                   
 N-FERTILIZER   :      161 kg/ha IN     5 APPLICATIONS                          
 RESIDUE/MANURE : INITIAL :     0 kg/ha ;       0 kg/ha IN     0 APPLICATIONS   
 ENVIRONM. OPT. : DAYL=    0.00  SRAD=    0.00  TMAX=    0.00  TMIN=    0.00    
                  RAIN=    0.00  CO2 =    0.00  DEW =    0.00  WIND=    0.00    
 SIMULATION OPT : WATER   :Y  NITROGEN:Y  N-FIX:N  PHOSPH :N  PESTS  :N         
                  PHOTO   :C  ET      :R  INFIL:S  HYDROL :R  SOM    :G         
                  CO2 341ppm  NSWIT   :1  EVAP :S  SOIL   :2  STEMP  :D         
 MANAGEMENT OPT : PLANTING:R  IRRIG   :N  FERT :D  RESIDUE:R  HARVEST:M         
                  WEATHER :M  TILLAGE :N                                        
                                                                                
*SUMMARY OF SOIL AND GENETIC INPUT PARAMETERS                                   
                                                                                
   SOIL LOWER UPPER   SAT  EXTR  INIT   ROOT   BULK     pH    NO3    NH4    ORG 
  DEPTH LIMIT LIMIT    SW    SW    SW   DIST   DENS                          C  
   cm   cm3/cm3    cm3/cm3    cm3/cm3         g/cm3         ugN/g  ugN/g     %  
------------------------------------------------------------------------------- 
  0-  5 0.215 0.331 0.341 0.116 0.331   1.00   1.68   6.70   0.00   0.00   0.75 
  5- 15 0.215 0.331 0.341 0.116 0.331   1.00   1.68   6.70   0.00   0.00   0.75 
 15- 25 0.215 0.331 0.341 0.116 0.331   1.00   1.68   6.70   0.00   0.00   0.75 
 25- 35 0.181 0.291 0.364 0.110 0.291   0.50   1.61   7.20   0.00   0.00   0.53 
 35- 45 0.181 0.291 0.364 0.110 0.291   0.50   1.61   7.20   0.00   0.00   0.53 
 45- 67 0.096 0.169 0.404 0.073 0.169   0.27   1.51   7.00   0.00   0.00   0.05 
 67- 90 0.096 0.169 0.404 0.073 0.169   0.27   1.51   7.00   0.00   0.00   0.05 
                                                                                
TOT- 90  13.3  21.7  34.0   8.4  21.7  <--cm   -  kg/ha-->    0.0    0.0  51964 
SOIL ALBEDO    : 0.09      EVAPORATION LIMIT : 6.00         MIN. FACTOR  : 1.00 
RUNOFF CURVE # :76.00      DRAINAGE RATE     : 0.60         FERT. FACTOR : 1.00 
                                                                                
 Maize      CULTIVAR :CI0004-DK7088             ECOTYPE :IB0001                 
 P1     : 229.00  P2     : 0.3000  P5     : 971.00                              
 G2     : 957.00  G3     :  7.500  PHINT  : 45.000                              


*SIMULATED CROP AND SOIL STATUS AT MAIN DEVELOPMENT STAGES

 RUN NO.    36     P12/19                  

        CROP GROWTH     BIOMASS         LEAF   CROP N     STRESS      STRESS                                           
   DATE  AGE STAGE        kg/ha    LAI   NUM  kg/ha  %   H2O  Nitr Phos1 Phos2  RSTG                                   
 ------  --- ----------   -----  -----  ----  ---  ---  ----  ----  ----  ----  ----                                   
 19 NOV    0 Start Sim        0   0.00   0.0    0  0.0  0.00  0.00  0.00  0.00     7
 19 DEC    0 Sowing           0   0.00   0.0    0  0.0  0.00  0.00  0.00  0.00     8
 20 DEC    1 Germinate        0   0.00   0.0    0  0.0  0.00  0.00  0.00  0.00     9
 25 DEC    6 Emergence       25   0.00   2.1    1  4.4  0.00  0.01  0.00  0.00     1
  7 JAN   19 End Juveni     121   0.26   7.7    4  3.3  0.00  0.00  0.00  0.00     2
 11 JAN   23 Floral Ini     296   0.54   9.5    9  2.9  0.00  0.00  0.00  0.00     3
 10 FEB   53 75% Silkin    1904   0.78  19.8   43  2.3  0.45  0.58  0.00  0.00     4
 19 FEB   62 Beg Gr Fil    1971   0.55  19.8   43  2.2  0.86  0.00  0.00  0.00     5
 30 MAR  101 End Gr Fil    2526   0.15  19.8   43  1.7  0.72  0.00  0.00  0.00     6
  2 APR  104 Maturity      2526   0.15  19.8   43  1.7  0.00  0.00  0.00  0.00    10
  2 APR  104 Harvest       2526   0.15  19.8   43  1.7  0.00  0.00  0.00  0.00    10


*MAIN GROWTH AND DEVELOPMENT VARIABLES

@     VARIABLE                                         SIMULATED     MEASURED
      --------                                         ---------     --------
      Anthesis day (dap)                                      53          -99
      Physiological maturity day (dap)                       104          -99
      Yield at harvest maturity (kg [dm]/ha)                 785          -99
      Number at maturity (no/m2)                             521          -99
      Unit wt at maturity (g [dm]/unit)                   0.1507          -99
      Number at maturity (no/unit)                          96.0          -99
      Tops weight at maturity (kg [dm]/ha)                  2526          -99
      By-product produced (stalk) at maturity (kg[dm]/ha    1770          -99
      Leaf area index, maximum                              1.08          -99
      Harvest index at maturity                            0.311          -99
      Grain N at maturity (kg/ha)                             15          -99
      Tops N at maturity (kg/ha)                              43          -99
      Stem N at maturity (kg/ha)                              26          -99
      Grain N at maturity (%)                                1.8          -99
      Tops weight at anthesis (kg [dm]/ha)                  1873          -99
      Tops N at anthesis (kg/ha)                              42          -99
      Leaf number per stem at maturity                     19.83          -99
      Emergence day (dap)                                      6          -99


*ENVIRONMENTAL AND STRESS FACTORS

 |-----Development Phase------|--------------------------------------Environment--------------------------------------|-----------------Stress-----------------|
                              |---------------Average--------------|-----Cumulative-----|--------Count of days--------|          (0=Min, 1=Max Stress)         |
                         Time  Temp  Temp  Temp Solar Photop                Evapo    Pot TMIN TMIN TMAX TMAX TMAX RAIN|----Water----|---Nitrogen--|-Phosphorus-|
                         Span   Max   Min  Mean   Rad  [day]    CO2   Rain  Trans     ET   <    <    >    >    >    >   Photo         Photo         Photo
                         days    邂    邂    邂 MJ/m2     hr    ppm     mm     mm     mm  0邂  2邂 30邂 32邂 34邂  0mm  synth Growth  synth Growth  synth Growth
----------------------------------------------------------------------------------------------------------------------------------------------------------------
 Emergence-End Juvenile    13  30.8  18.6  24.7  15.5   0.00  341.6    3.4   11.3   55.4    0    0   10    4    0    2  0.000  0.000  0.002  0.005  0.000  0.000
 End Juvenil-Floral Init    4  33.5  19.9  26.7  18.2   0.00  341.6    0.0    5.7   20.2    0    0    4    3    2    0  0.000  0.000  0.001  0.003  0.000  0.000
 Floral Init-End Lf Grow   30  33.7  20.6  27.1  16.6   0.00  341.7   19.2   55.5  133.4    0    0   29   24   15    6  0.283  0.422  0.373  0.581  0.000  0.000
 End Lf Grth-Beg Grn Fil    9  34.0  20.0  27.0  18.6   0.00  341.9    0.0   11.1   45.4    0    0    9    9    4    0  0.769  0.846  0.000  0.000  0.000  0.000
 Grain Filling Phase       39  33.4  21.2  27.3  16.1   6.92  342.0   88.1   45.3  179.1    0    0   36   30   18   11  0.675  0.741  0.000  0.000  0.000  0.000


 Planting to Harvest      104  33.1  20.4  26.7  16.7   3.03  341.8  111.4  140.9  481.8    0    0   95   72   39   21  0.401  0.473  0.108  0.168  0.000  0.000
----------------------------------------------------------------------------------------------------------------------------------------------------------------


*Resource Productivity
 Growing season length: 104 days 

 Precipitation during growing season       111.4 mm[rain]
   Dry Matter Productivity                  2.27 kg[DM]/m3[rain]          =   22.7 kg[DM]/ha per mm[rain]
   Yield Productivity                       0.70 kg[grain yield]/m3[rain] =    7.0 kg[yield]/ha per mm[rain]

 Evapotranspiration during growing season  140.9 mm[ET]
   Dry Matter Productivity                  1.79 kg[DM]/m3[ET]            =   17.9 kg[DM]/ha per mm[ET]
   Yield Productivity                       0.56 kg[grain yield]/m3[ET]   =    5.6 kg[yield]/ha per mm[ET]

 Transpiration during growing season        63.3 mm[EP]
   Dry Matter Productivity                  3.99 kg[DM]/m3[EP]            =   39.9 kg[DM]/ha per mm[EP]
   Yield Productivity                       1.24 kg[grain yield]/m3[EP]   =   12.4 kg[yield]/ha per mm[EP]

 N applied during growing season            161. kg[N applied]/ha
   Dry Matter Productivity                  15.7 kg[DM]/kg[N applied]
   Yield Productivity                        4.9 kg[yield]/kg[N applied]

 N uptake during growing season               47 kg[N uptake]/ha
   Dry Matter Productivity                  53.7 kg[DM]/kg[N uptake]
   Yield Productivity                       16.7 kg[yield]/kg[N uptake]

--------------------------------------------------------------------------------------------------------------

                     Maize YIELD :      785 kg/ha    [Dry weight] 

**************************************************************************************************************
