*SIMULATION OVERVIEW FILE

*DSSAT Cropping System Model Ver. 4.6.1.000 -release      OCT 24, 2017; 10:35:19
                                                                                
*RUN   1        : P04/02                    MZCER046 ANBU1982    1              
 MODEL          : MZCER046 - Maize                                              
 EXPERIMENT     : ANBU1982 MZ  Analisis a침os de bajo rendimiento Buga          
 DATA PATH      : C:\DSSAT46\maize\                                             
 TREATMENT  1   : P04/02                    MZCER046                            
                                                                                
                                                                                
 CROP           : Maize            CULTIVAR : FNC3056          ECOTYPE :IB0001  
 STARTING DATE  : MAR  3 1982                                                   
 PLANTING DATE  : APR  2 1982        PLANTS/m2 :  6.2     ROW SPACING :  80.cm  
 WEATHER        : CUNI   1982                                                   
 SOIL           : CCBUGA2017     TEXTURE : CL    -   Suelo Buga MADR Fase I     
 SOIL INITIAL C : DEPTH: 90cm EXTR. H2O: 83.9mm  NO3:  0.0kg/ha  NH4:  0.0kg/ha 
 WATER BALANCE  : RAINFED                                                       
 IRRIGATION     : NOT IRRIGATED                                                 
 NITROGEN BAL.  : SOIL-N & N-UPTAKE SIMULATION; NO N-FIXATION                   
 N-FERTILIZER   :      161 kg/ha IN     5 APPLICATIONS                          
 RESIDUE/MANURE : INITIAL :     0 kg/ha ;       0 kg/ha IN     0 APPLICATIONS   
 ENVIRONM. OPT. : DAYL=    0.00  SRAD=    0.00  TMAX=    0.00  TMIN=    0.00    
                  RAIN=    0.00  CO2 =    0.00  DEW =    0.00  WIND=    0.00    
 SIMULATION OPT : WATER   :Y  NITROGEN:Y  N-FIX:N  PHOSPH :N  PESTS  :N         
                  PHOTO   :C  ET      :R  INFIL:S  HYDROL :R  SOM    :G         
                  CO2 341ppm  NSWIT   :1  EVAP :S  SOIL   :2  STEMP  :D         
 MANAGEMENT OPT : PLANTING:R  IRRIG   :N  FERT :D  RESIDUE:R  HARVEST:M         
                  WEATHER :M  TILLAGE :N                                        
                                                                                
*SUMMARY OF SOIL AND GENETIC INPUT PARAMETERS                                   
                                                                                
   SOIL LOWER UPPER   SAT  EXTR  INIT   ROOT   BULK     pH    NO3    NH4    ORG 
  DEPTH LIMIT LIMIT    SW    SW    SW   DIST   DENS                          C  
   cm   cm3/cm3    cm3/cm3    cm3/cm3         g/cm3         ugN/g  ugN/g     %  
------------------------------------------------------------------------------- 
  0-  5 0.215 0.331 0.341 0.116 0.331   1.00   1.68   6.70   0.00   0.00   0.75 
  5- 15 0.215 0.331 0.341 0.116 0.331   1.00   1.68   6.70   0.00   0.00   0.75 
 15- 25 0.215 0.331 0.341 0.116 0.331   1.00   1.68   6.70   0.00   0.00   0.75 
 25- 35 0.181 0.291 0.364 0.110 0.291   0.50   1.61   7.20   0.00   0.00   0.53 
 35- 45 0.181 0.291 0.364 0.110 0.291   0.50   1.61   7.20   0.00   0.00   0.53 
 45- 67 0.096 0.169 0.404 0.073 0.169   0.27   1.51   7.00   0.00   0.00   0.05 
 67- 90 0.096 0.169 0.404 0.073 0.169   0.27   1.51   7.00   0.00   0.00   0.05 
                                                                                
TOT- 90  13.3  21.7  34.0   8.4  21.7  <--cm   -  kg/ha-->    0.0    0.0  51964 
SOIL ALBEDO    : 0.09      EVAPORATION LIMIT : 6.00         MIN. FACTOR  : 1.00 
RUNOFF CURVE # :76.00      DRAINAGE RATE     : 0.60         FERT. FACTOR : 1.00 
                                                                                
 Maize      CULTIVAR :CI0003-FNC3056            ECOTYPE :IB0001                 
 P1     : 233.00  P2     : 0.5000  P5     : 976.00                              
 G2     : 956.00  G3     :  7.500  PHINT  : 45.600                              


*SIMULATED CROP AND SOIL STATUS AT MAIN DEVELOPMENT STAGES

 RUN NO.     1     P04/02                  

        CROP GROWTH     BIOMASS         LEAF   CROP N     STRESS      STRESS                                           
   DATE  AGE STAGE        kg/ha    LAI   NUM  kg/ha  %   H2O  Nitr Phos1 Phos2  RSTG                                   
 ------  --- ----------   -----  -----  ----  ---  ---  ----  ----  ----  ----  ----                                   
  3 MAR    0 Start Sim        0   0.00   0.0    0  0.0  0.00  0.00  0.00  0.00     7
  2 APR    0 Sowing           0   0.00   0.0    0  0.0  0.00  0.00  0.00  0.00     8
  3 APR    1 Germinate        0   0.00   0.0    0  0.0  0.00  0.00  0.00  0.00     9
  8 APR    6 Emergence       25   0.00   2.1    1  4.4  0.00  0.01  0.00  0.00     1
 22 APR   20 End Juveni      89   0.19   7.9    3  3.4  0.00  0.00  0.00  0.00     2
 30 APR   28 Floral Ini     385   0.67  10.9   14  3.6  0.00  0.00  0.00  0.00     3
  8 JUN   67 75% Silkin    6258   3.45  22.6  123  2.0  0.00  0.00  0.00  0.00     4
 18 JUN   77 Beg Gr Fil    8687   3.27  22.6  123  1.4  0.03  0.00  0.00  0.00     5
  2 AUG  122 End Gr Fil   12441   0.72  22.6  147  1.2  0.74  0.00  0.00  0.00     6
  4 AUG  124 Maturity     12441   0.72  22.6  147  1.2  0.96  0.00  0.00  0.00    10
  4 AUG  124 Harvest      12441   0.72  22.6  147  1.2  0.00  0.00  0.00  0.00    10


*MAIN GROWTH AND DEVELOPMENT VARIABLES

@     VARIABLE                                         SIMULATED     MEASURED
      --------                                         ---------     --------
      Anthesis day (dap)                                      67          -99
      Physiological maturity day (dap)                       124          -99
      Yield at harvest maturity (kg [dm]/ha)                4956          -99
      Number at maturity (no/m2)                            3130          -99
      Unit wt at maturity (g [dm]/unit)                   0.1583          -99
      Number at maturity (no/unit)                         504.9          -99
      Tops weight at maturity (kg [dm]/ha)                 12441          -99
      By-product produced (stalk) at maturity (kg[dm]/ha    7543          -99
      Leaf area index, maximum                              3.62          -99
      Harvest index at maturity                            0.398          -99
      Grain N at maturity (kg/ha)                             90          -99
      Tops N at maturity (kg/ha)                             147          -99
      Stem N at maturity (kg/ha)                              57          -99
      Grain N at maturity (%)                                1.8          -99
      Tops weight at anthesis (kg [dm]/ha)                  6020          -99
      Tops N at anthesis (kg/ha)                             122          -99
      Leaf number per stem at maturity                     22.61          -99
      Emergence day (dap)                                      6          -99


*ENVIRONMENTAL AND STRESS FACTORS

 |-----Development Phase------|--------------------------------------Environment--------------------------------------|-----------------Stress-----------------|
                              |---------------Average--------------|-----Cumulative-----|--------Count of days--------|          (0=Min, 1=Max Stress)         |
                         Time  Temp  Temp  Temp Solar Photop                Evapo    Pot TMIN TMIN TMAX TMAX TMAX RAIN|----Water----|---Nitrogen--|-Phosphorus-|
                         Span   Max   Min  Mean   Rad  [day]    CO2   Rain  Trans     ET   <    <    >    >    >    >   Photo         Photo         Photo
                         days    邂    邂    邂 MJ/m2     hr    ppm     mm     mm     mm  0邂  2邂 30邂 32邂 34邂  0mm  synth Growth  synth Growth  synth Growth
----------------------------------------------------------------------------------------------------------------------------------------------------------------
 Emergence-End Juvenile    14  29.7  19.5  24.6  14.4  22.15  340.8   48.5   40.2   56.1    0    0    8    0    0    9  0.000  0.000  0.002  0.005  0.000  0.000
 End Juvenil-Floral Init    8  30.0  19.6  24.8  13.9  24.00  340.9    9.3   15.7   30.2    0    0    5    1    0    5  0.000  0.000  0.001  0.002  0.000  0.000
 Floral Init-End Lf Grow   39  29.6  19.6  24.6  14.4  24.00  340.9  232.3  135.7  136.6    0    0   13    0    0   23  0.000  0.000  0.000  0.000  0.000  0.000
 End Lf Grth-Beg Grn Fil   10  30.5  19.2  24.8  16.9  24.00  341.0   21.0   40.1   40.1    0    0    6    0    0    4  0.000  0.009  0.000  0.000  0.000  0.000
 Grain Filling Phase       45  31.6  18.3  24.9  18.1  24.00  341.1   45.7   76.5  201.5    0    0   38   15    2   10  0.656  0.723  0.000  0.000  0.000  0.000


 Planting to Harvest      124  30.5  19.1  24.8  15.9  23.44  341.0  391.1  330.1  496.8    0    0   73   18    3   56  0.253  0.279  0.000  0.001  0.000  0.000
----------------------------------------------------------------------------------------------------------------------------------------------------------------


*Resource Productivity
 Growing season length: 124 days 

 Precipitation during growing season       391.1 mm[rain]
   Dry Matter Productivity                  3.18 kg[DM]/m3[rain]          =   31.8 kg[DM]/ha per mm[rain]
   Yield Productivity                       1.27 kg[grain yield]/m3[rain] =   12.7 kg[yield]/ha per mm[rain]

 Evapotranspiration during growing season  330.1 mm[ET]
   Dry Matter Productivity                  3.77 kg[DM]/m3[ET]            =   37.7 kg[DM]/ha per mm[ET]
   Yield Productivity                       1.50 kg[grain yield]/m3[ET]   =   15.0 kg[yield]/ha per mm[ET]

 Transpiration during growing season       193.0 mm[EP]
   Dry Matter Productivity                  6.45 kg[DM]/m3[EP]            =   64.5 kg[DM]/ha per mm[EP]
   Yield Productivity                       2.57 kg[grain yield]/m3[EP]   =   25.7 kg[yield]/ha per mm[EP]

 N applied during growing season            161. kg[N applied]/ha
   Dry Matter Productivity                  77.3 kg[DM]/kg[N applied]
   Yield Productivity                       30.8 kg[yield]/kg[N applied]

 N uptake during growing season              161 kg[N uptake]/ha
   Dry Matter Productivity                  77.3 kg[DM]/kg[N uptake]
   Yield Productivity                       30.8 kg[yield]/kg[N uptake]

--------------------------------------------------------------------------------------------------------------

                     Maize YIELD :     4956 kg/ha    [Dry weight] 

**************************************************************************************************************

*DSSAT Cropping System Model Ver. 4.6.1.000 -release      OCT 24, 2017; 10:35:19
                                                                                
*RUN   2        : P04/07                    MZCER046 ANBU1982    2              
 MODEL          : MZCER046 - Maize                                              
 EXPERIMENT     : ANBU1982 MZ  Analisis a침os de bajo rendimiento Buga          
 DATA PATH      : C:\DSSAT46\maize\                                             
 TREATMENT  2   : P04/07                    MZCER046                            
                                                                                
                                                                                
 CROP           : Maize            CULTIVAR : FNC3056          ECOTYPE :IB0001  
 STARTING DATE  : MAR  8 1982                                                   
 PLANTING DATE  : APR  7 1982        PLANTS/m2 :  6.2     ROW SPACING :  80.cm  
 WEATHER        : CUNI   1982                                                   
 SOIL           : CCBUGA2017     TEXTURE : CL    -   Suelo Buga MADR Fase I     
 SOIL INITIAL C : DEPTH: 90cm EXTR. H2O: 83.9mm  NO3:  0.0kg/ha  NH4:  0.0kg/ha 
 WATER BALANCE  : RAINFED                                                       
 IRRIGATION     : NOT IRRIGATED                                                 
 NITROGEN BAL.  : SOIL-N & N-UPTAKE SIMULATION; NO N-FIXATION                   
 N-FERTILIZER   :      161 kg/ha IN     5 APPLICATIONS                          
 RESIDUE/MANURE : INITIAL :     0 kg/ha ;       0 kg/ha IN     0 APPLICATIONS   
 ENVIRONM. OPT. : DAYL=    0.00  SRAD=    0.00  TMAX=    0.00  TMIN=    0.00    
                  RAIN=    0.00  CO2 =    0.00  DEW =    0.00  WIND=    0.00    
 SIMULATION OPT : WATER   :Y  NITROGEN:Y  N-FIX:N  PHOSPH :N  PESTS  :N         
                  PHOTO   :C  ET      :R  INFIL:S  HYDROL :R  SOM    :G         
                  CO2 341ppm  NSWIT   :1  EVAP :S  SOIL   :2  STEMP  :D         
 MANAGEMENT OPT : PLANTING:R  IRRIG   :N  FERT :D  RESIDUE:R  HARVEST:M         
                  WEATHER :M  TILLAGE :N                                        
                                                                                
*SUMMARY OF SOIL AND GENETIC INPUT PARAMETERS                                   
                                                                                
   SOIL LOWER UPPER   SAT  EXTR  INIT   ROOT   BULK     pH    NO3    NH4    ORG 
  DEPTH LIMIT LIMIT    SW    SW    SW   DIST   DENS                          C  
   cm   cm3/cm3    cm3/cm3    cm3/cm3         g/cm3         ugN/g  ugN/g     %  
------------------------------------------------------------------------------- 
  0-  5 0.215 0.331 0.341 0.116 0.331   1.00   1.68   6.70   0.00   0.00   0.75 
  5- 15 0.215 0.331 0.341 0.116 0.331   1.00   1.68   6.70   0.00   0.00   0.75 
 15- 25 0.215 0.331 0.341 0.116 0.331   1.00   1.68   6.70   0.00   0.00   0.75 
 25- 35 0.181 0.291 0.364 0.110 0.291   0.50   1.61   7.20   0.00   0.00   0.53 
 35- 45 0.181 0.291 0.364 0.110 0.291   0.50   1.61   7.20   0.00   0.00   0.53 
 45- 67 0.096 0.169 0.404 0.073 0.169   0.27   1.51   7.00   0.00   0.00   0.05 
 67- 90 0.096 0.169 0.404 0.073 0.169   0.27   1.51   7.00   0.00   0.00   0.05 
                                                                                
TOT- 90  13.3  21.7  34.0   8.4  21.7  <--cm   -  kg/ha-->    0.0    0.0  51964 
SOIL ALBEDO    : 0.09      EVAPORATION LIMIT : 6.00         MIN. FACTOR  : 1.00 
RUNOFF CURVE # :76.00      DRAINAGE RATE     : 0.60         FERT. FACTOR : 1.00 
                                                                                
 Maize      CULTIVAR :CI0003-FNC3056            ECOTYPE :IB0001                 
 P1     : 233.00  P2     : 0.5000  P5     : 976.00                              
 G2     : 956.00  G3     :  7.500  PHINT  : 45.600                              


*SIMULATED CROP AND SOIL STATUS AT MAIN DEVELOPMENT STAGES

 RUN NO.     2     P04/07                  

        CROP GROWTH     BIOMASS         LEAF   CROP N     STRESS      STRESS                                           
   DATE  AGE STAGE        kg/ha    LAI   NUM  kg/ha  %   H2O  Nitr Phos1 Phos2  RSTG                                   
 ------  --- ----------   -----  -----  ----  ---  ---  ----  ----  ----  ----  ----                                   
  8 MAR    0 Start Sim        0   0.00   0.0    0  0.0  0.00  0.00  0.00  0.00     7
  7 APR    0 Sowing           0   0.00   0.0    0  0.0  0.00  0.00  0.00  0.00     8
  8 APR    1 Germinate        0   0.00   0.0    0  0.0  0.00  0.00  0.00  0.00     9
 13 APR    6 Emergence       25   0.00   2.0    1  4.4  0.00  0.01  0.00  0.00     1
 26 APR   19 End Juveni      86   0.19   7.7    3  3.3  0.00  0.00  0.00  0.00     2
  4 MAY   27 Floral Ini     307   0.56  10.7   11  3.6  0.00  0.00  0.00  0.00     3
 11 JUN   65 75% Silkin    6043   3.17  22.3  119  2.0  0.00  0.00  0.00  0.00     4
 22 JUN   76 Beg Gr Fil    8244   3.00  22.3  119  1.4  0.14  0.00  0.00  0.00     5
  5 AUG  120 End Gr Fil   10794   0.57  22.3  127  1.2  0.82  0.00  0.00  0.00     6
  8 AUG  123 Maturity     10794   0.57  22.3  127  1.2  0.96  0.00  0.00  0.00    10
  8 AUG  123 Harvest      10794   0.57  22.3  127  1.2  0.00  0.00  0.00  0.00    10


*MAIN GROWTH AND DEVELOPMENT VARIABLES

@     VARIABLE                                         SIMULATED     MEASURED
      --------                                         ---------     --------
      Anthesis day (dap)                                      65          -99
      Physiological maturity day (dap)                       123          -99
      Yield at harvest maturity (kg [dm]/ha)                3930          -99
      Number at maturity (no/m2)                            2734          -99
      Unit wt at maturity (g [dm]/unit)                   0.1438          -99
      Number at maturity (no/unit)                         440.9          -99
      Tops weight at maturity (kg [dm]/ha)                 10794          -99
      By-product produced (stalk) at maturity (kg[dm]/ha    6918          -99
      Leaf area index, maximum                              3.32          -99
      Harvest index at maturity                            0.364          -99
      Grain N at maturity (kg/ha)                             72          -99
      Tops N at maturity (kg/ha)                             127          -99
      Stem N at maturity (kg/ha)                              54          -99
      Grain N at maturity (%)                                1.8          -99
      Tops weight at anthesis (kg [dm]/ha)                  5763          -99
      Tops N at anthesis (kg/ha)                             118          -99
      Leaf number per stem at maturity                     22.28          -99
      Emergence day (dap)                                      6          -99


*ENVIRONMENTAL AND STRESS FACTORS

 |-----Development Phase------|--------------------------------------Environment--------------------------------------|-----------------Stress-----------------|
                              |---------------Average--------------|-----Cumulative-----|--------Count of days--------|          (0=Min, 1=Max Stress)         |
                         Time  Temp  Temp  Temp Solar Photop                Evapo    Pot TMIN TMIN TMAX TMAX TMAX RAIN|----Water----|---Nitrogen--|-Phosphorus-|
                         Span   Max   Min  Mean   Rad  [day]    CO2   Rain  Trans     ET   <    <    >    >    >    >   Photo         Photo         Photo
                         days    邂    邂    邂 MJ/m2     hr    ppm     mm     mm     mm  0邂  2邂 30邂 32邂 34邂  0mm  synth Growth  synth Growth  synth Growth
----------------------------------------------------------------------------------------------------------------------------------------------------------------
 Emergence-End Juvenile    13  30.2  19.7  24.9  14.8  23.76  340.9   18.5   27.6   53.6    0    0    9    1    0    7  0.000  0.000  0.002  0.005  0.000  0.000
 End Juvenil-Floral Init    8  29.8  19.5  24.6  13.6  24.00  340.9   67.4   21.2   29.5    0    0    5    0    0    7  0.000  0.000  0.000  0.001  0.000  0.000
 Floral Init-End Lf Grow   38  29.6  19.6  24.6  14.6  24.00  340.9  180.0  132.8  135.8    0    0   12    0    0   21  0.000  0.000  0.000  0.000  0.000  0.000
 End Lf Grth-Beg Grn Fil   11  30.3  18.7  24.5  15.8  24.00  341.0   23.8   39.2   41.3    0    0    6    0    0    5  0.053  0.126  0.000  0.000  0.000  0.000
 Grain Filling Phase       44  31.9  18.3  25.1  18.8  24.00  341.1   35.0   63.6  207.1    0    0   39   18    4    7  0.741  0.802  0.000  0.000  0.000  0.000


 Planting to Harvest      123  30.6  19.0  24.8  16.2  23.74  341.0  361.2  309.5  506.1    0    0   77   20    4   53  0.293  0.322  0.000  0.001  0.000  0.000
----------------------------------------------------------------------------------------------------------------------------------------------------------------


*Resource Productivity
 Growing season length: 123 days 

 Precipitation during growing season       361.2 mm[rain]
   Dry Matter Productivity                  2.99 kg[DM]/m3[rain]          =   29.9 kg[DM]/ha per mm[rain]
   Yield Productivity                       1.09 kg[grain yield]/m3[rain] =   10.9 kg[yield]/ha per mm[rain]

 Evapotranspiration during growing season  309.5 mm[ET]
   Dry Matter Productivity                  3.49 kg[DM]/m3[ET]            =   34.9 kg[DM]/ha per mm[ET]
   Yield Productivity                       1.27 kg[grain yield]/m3[ET]   =   12.7 kg[yield]/ha per mm[ET]

 Transpiration during growing season       171.1 mm[EP]
   Dry Matter Productivity                  6.31 kg[DM]/m3[EP]            =   63.1 kg[DM]/ha per mm[EP]
   Yield Productivity                       2.30 kg[grain yield]/m3[EP]   =   23.0 kg[yield]/ha per mm[EP]

 N applied during growing season            161. kg[N applied]/ha
   Dry Matter Productivity                  67.0 kg[DM]/kg[N applied]
   Yield Productivity                       24.4 kg[yield]/kg[N applied]

 N uptake during growing season              139 kg[N uptake]/ha
   Dry Matter Productivity                  77.7 kg[DM]/kg[N uptake]
   Yield Productivity                       28.3 kg[yield]/kg[N uptake]

--------------------------------------------------------------------------------------------------------------

                     Maize YIELD :     3930 kg/ha    [Dry weight] 

**************************************************************************************************************

*DSSAT Cropping System Model Ver. 4.6.1.000 -release      OCT 24, 2017; 10:35:19
                                                                                
*RUN   3        : P04/12                    MZCER046 ANBU1982    3              
 MODEL          : MZCER046 - Maize                                              
 EXPERIMENT     : ANBU1982 MZ  Analisis a침os de bajo rendimiento Buga          
 DATA PATH      : C:\DSSAT46\maize\                                             
 TREATMENT  3   : P04/12                    MZCER046                            
                                                                                
                                                                                
 CROP           : Maize            CULTIVAR : FNC3056          ECOTYPE :IB0001  
 STARTING DATE  : MAR 13 1982                                                   
 PLANTING DATE  : APR 12 1982        PLANTS/m2 :  6.2     ROW SPACING :  80.cm  
 WEATHER        : CUNI   1982                                                   
 SOIL           : CCBUGA2017     TEXTURE : CL    -   Suelo Buga MADR Fase I     
 SOIL INITIAL C : DEPTH: 90cm EXTR. H2O: 83.9mm  NO3:  0.0kg/ha  NH4:  0.0kg/ha 
 WATER BALANCE  : RAINFED                                                       
 IRRIGATION     : NOT IRRIGATED                                                 
 NITROGEN BAL.  : SOIL-N & N-UPTAKE SIMULATION; NO N-FIXATION                   
 N-FERTILIZER   :      161 kg/ha IN     5 APPLICATIONS                          
 RESIDUE/MANURE : INITIAL :     0 kg/ha ;       0 kg/ha IN     0 APPLICATIONS   
 ENVIRONM. OPT. : DAYL=    0.00  SRAD=    0.00  TMAX=    0.00  TMIN=    0.00    
                  RAIN=    0.00  CO2 =    0.00  DEW =    0.00  WIND=    0.00    
 SIMULATION OPT : WATER   :Y  NITROGEN:Y  N-FIX:N  PHOSPH :N  PESTS  :N         
                  PHOTO   :C  ET      :R  INFIL:S  HYDROL :R  SOM    :G         
                  CO2 341ppm  NSWIT   :1  EVAP :S  SOIL   :2  STEMP  :D         
 MANAGEMENT OPT : PLANTING:R  IRRIG   :N  FERT :D  RESIDUE:R  HARVEST:M         
                  WEATHER :M  TILLAGE :N                                        
                                                                                
*SUMMARY OF SOIL AND GENETIC INPUT PARAMETERS                                   
                                                                                
   SOIL LOWER UPPER   SAT  EXTR  INIT   ROOT   BULK     pH    NO3    NH4    ORG 
  DEPTH LIMIT LIMIT    SW    SW    SW   DIST   DENS                          C  
   cm   cm3/cm3    cm3/cm3    cm3/cm3         g/cm3         ugN/g  ugN/g     %  
------------------------------------------------------------------------------- 
  0-  5 0.215 0.331 0.341 0.116 0.331   1.00   1.68   6.70   0.00   0.00   0.75 
  5- 15 0.215 0.331 0.341 0.116 0.331   1.00   1.68   6.70   0.00   0.00   0.75 
 15- 25 0.215 0.331 0.341 0.116 0.331   1.00   1.68   6.70   0.00   0.00   0.75 
 25- 35 0.181 0.291 0.364 0.110 0.291   0.50   1.61   7.20   0.00   0.00   0.53 
 35- 45 0.181 0.291 0.364 0.110 0.291   0.50   1.61   7.20   0.00   0.00   0.53 
 45- 67 0.096 0.169 0.404 0.073 0.169   0.27   1.51   7.00   0.00   0.00   0.05 
 67- 90 0.096 0.169 0.404 0.073 0.169   0.27   1.51   7.00   0.00   0.00   0.05 
                                                                                
TOT- 90  13.3  21.7  34.0   8.4  21.7  <--cm   -  kg/ha-->    0.0    0.0  51964 
SOIL ALBEDO    : 0.09      EVAPORATION LIMIT : 6.00         MIN. FACTOR  : 1.00 
RUNOFF CURVE # :76.00      DRAINAGE RATE     : 0.60         FERT. FACTOR : 1.00 
                                                                                
 Maize      CULTIVAR :CI0003-FNC3056            ECOTYPE :IB0001                 
 P1     : 233.00  P2     : 0.5000  P5     : 976.00                              
 G2     : 956.00  G3     :  7.500  PHINT  : 45.600                              


*SIMULATED CROP AND SOIL STATUS AT MAIN DEVELOPMENT STAGES

 RUN NO.     3     P04/12                  

        CROP GROWTH     BIOMASS         LEAF   CROP N     STRESS      STRESS                                           
   DATE  AGE STAGE        kg/ha    LAI   NUM  kg/ha  %   H2O  Nitr Phos1 Phos2  RSTG                                   
 ------  --- ----------   -----  -----  ----  ---  ---  ----  ----  ----  ----  ----                                   
 13 MAR    0 Start Sim        0   0.00   0.0    0  0.0  0.00  0.00  0.00  0.00     7
 12 APR    0 Sowing           0   0.00   0.0    0  0.0  0.00  0.00  0.00  0.00     8
 13 APR    1 Germinate        0   0.00   0.0    0  0.0  0.00  0.00  0.00  0.00     9
 18 APR    6 Emergence       25   0.00   2.1    1  4.4  0.00  0.01  0.00  0.00     1
  1 MAY   19 End Juveni      86   0.19   7.6    3  3.6  0.00  0.00  0.00  0.00     2
  9 MAY   27 Floral Ini     280   0.52  10.7   10  3.6  0.00  0.00  0.00  0.00     3
 16 JUN   65 75% Silkin    6247   3.28  22.3  122  2.0  0.01  0.00  0.00  0.00     4
 27 JUN   76 Beg Gr Fil    7390   2.61  22.3  123  1.7  0.54  0.00  0.00  0.00     5
 10 AUG  120 End Gr Fil    9266   0.46  22.3  123  1.3  0.84  0.00  0.00  0.00     6
 13 AUG  123 Maturity      9266   0.46  22.3  123  1.3  0.95  0.00  0.00  0.00    10
 13 AUG  123 Harvest       9266   0.46  22.3  123  1.3  0.00  0.00  0.00  0.00    10


*MAIN GROWTH AND DEVELOPMENT VARIABLES

@     VARIABLE                                         SIMULATED     MEASURED
      --------                                         ---------     --------
      Anthesis day (dap)                                      65          -99
      Physiological maturity day (dap)                       123          -99
      Yield at harvest maturity (kg [dm]/ha)                3262          -99
      Number at maturity (no/m2)                            1848          -99
      Unit wt at maturity (g [dm]/unit)                   0.1765          -99
      Number at maturity (no/unit)                         298.0          -99
      Tops weight at maturity (kg [dm]/ha)                  9266          -99
      By-product produced (stalk) at maturity (kg[dm]/ha    6060          -99
      Leaf area index, maximum                              3.44          -99
      Harvest index at maturity                            0.352          -99
      Grain N at maturity (kg/ha)                             61          -99
      Tops N at maturity (kg/ha)                             123          -99
      Stem N at maturity (kg/ha)                              62          -99
      Grain N at maturity (%)                                1.9          -99
      Tops weight at anthesis (kg [dm]/ha)                  6042          -99
      Tops N at anthesis (kg/ha)                             122          -99
      Leaf number per stem at maturity                     22.26          -99
      Emergence day (dap)                                      6          -99


*ENVIRONMENTAL AND STRESS FACTORS

 |-----Development Phase------|--------------------------------------Environment--------------------------------------|-----------------Stress-----------------|
                              |---------------Average--------------|-----Cumulative-----|--------Count of days--------|          (0=Min, 1=Max Stress)         |
                         Time  Temp  Temp  Temp Solar Photop                Evapo    Pot TMIN TMIN TMAX TMAX TMAX RAIN|----Water----|---Nitrogen--|-Phosphorus-|
                         Span   Max   Min  Mean   Rad  [day]    CO2   Rain  Trans     ET   <    <    >    >    >    >   Photo         Photo         Photo
                         days    邂    邂    邂 MJ/m2     hr    ppm     mm     mm     mm  0邂  2邂 30邂 32邂 34邂  0mm  synth Growth  synth Growth  synth Growth
----------------------------------------------------------------------------------------------------------------------------------------------------------------
 Emergence-End Juvenile    13  29.9  19.8  24.8  13.3  24.00  340.9   17.0   20.9   48.4    0    0    8    1    0    9  0.000  0.000  0.002  0.005  0.000  0.000
 End Juvenil-Floral Init    8  30.2  19.9  25.0  13.0  24.00  340.9   79.2   28.5   28.5    0    0    4    0    0    6  0.000  0.000  0.000  0.001  0.000  0.000
 Floral Init-End Lf Grow   38  29.7  19.5  24.6  15.4  24.00  341.0  173.4  137.5  143.7    0    0   13    0    0   20  0.000  0.002  0.000  0.000  0.000  0.000
 End Lf Grth-Beg Grn Fil   11  30.3  18.6  24.4  15.3  24.00  341.1   10.7   26.4   40.0    0    0    6    0    0    3  0.343  0.499  0.000  0.000  0.000  0.000
 Grain Filling Phase       44  32.1  18.2  25.1  19.1  24.00  341.1   38.1   55.8  213.1    0    0   41   20    4    9  0.792  0.839  0.000  0.000  0.000  0.000


 Planting to Harvest      123  30.8  18.9  24.9  16.4  23.95  341.0  327.8  287.1  515.4    0    0   79   24    7   49  0.336  0.369  0.000  0.001  0.000  0.000
----------------------------------------------------------------------------------------------------------------------------------------------------------------


*Resource Productivity
 Growing season length: 123 days 

 Precipitation during growing season       327.8 mm[rain]
   Dry Matter Productivity                  2.83 kg[DM]/m3[rain]          =   28.3 kg[DM]/ha per mm[rain]
   Yield Productivity                       1.00 kg[grain yield]/m3[rain] =   10.0 kg[yield]/ha per mm[rain]

 Evapotranspiration during growing season  287.1 mm[ET]
   Dry Matter Productivity                  3.23 kg[DM]/m3[ET]            =   32.3 kg[DM]/ha per mm[ET]
   Yield Productivity                       1.14 kg[grain yield]/m3[ET]   =   11.4 kg[yield]/ha per mm[ET]

 Transpiration during growing season       154.6 mm[EP]
   Dry Matter Productivity                  5.99 kg[DM]/m3[EP]            =   59.9 kg[DM]/ha per mm[EP]
   Yield Productivity                       2.11 kg[grain yield]/m3[EP]   =   21.1 kg[yield]/ha per mm[EP]

 N applied during growing season            161. kg[N applied]/ha
   Dry Matter Productivity                  57.6 kg[DM]/kg[N applied]
   Yield Productivity                       20.3 kg[yield]/kg[N applied]

 N uptake during growing season              136 kg[N uptake]/ha
   Dry Matter Productivity                  68.1 kg[DM]/kg[N uptake]
   Yield Productivity                       24.0 kg[yield]/kg[N uptake]

--------------------------------------------------------------------------------------------------------------

                     Maize YIELD :     3262 kg/ha    [Dry weight] 

**************************************************************************************************************

*DSSAT Cropping System Model Ver. 4.6.1.000 -release      OCT 24, 2017; 10:35:19
                                                                                
*RUN   4        : P04/17                    MZCER046 ANBU1982    4              
 MODEL          : MZCER046 - Maize                                              
 EXPERIMENT     : ANBU1982 MZ  Analisis a침os de bajo rendimiento Buga          
 DATA PATH      : C:\DSSAT46\maize\                                             
 TREATMENT  4   : P04/17                    MZCER046                            
                                                                                
                                                                                
 CROP           : Maize            CULTIVAR : FNC3056          ECOTYPE :IB0001  
 STARTING DATE  : MAR 18 1982                                                   
 PLANTING DATE  : APR 17 1982        PLANTS/m2 :  6.2     ROW SPACING :  80.cm  
 WEATHER        : CUNI   1982                                                   
 SOIL           : CCBUGA2017     TEXTURE : CL    -   Suelo Buga MADR Fase I     
 SOIL INITIAL C : DEPTH: 90cm EXTR. H2O: 83.9mm  NO3:  0.0kg/ha  NH4:  0.0kg/ha 
 WATER BALANCE  : RAINFED                                                       
 IRRIGATION     : NOT IRRIGATED                                                 
 NITROGEN BAL.  : SOIL-N & N-UPTAKE SIMULATION; NO N-FIXATION                   
 N-FERTILIZER   :      161 kg/ha IN     5 APPLICATIONS                          
 RESIDUE/MANURE : INITIAL :     0 kg/ha ;       0 kg/ha IN     0 APPLICATIONS   
 ENVIRONM. OPT. : DAYL=    0.00  SRAD=    0.00  TMAX=    0.00  TMIN=    0.00    
                  RAIN=    0.00  CO2 =    0.00  DEW =    0.00  WIND=    0.00    
 SIMULATION OPT : WATER   :Y  NITROGEN:Y  N-FIX:N  PHOSPH :N  PESTS  :N         
                  PHOTO   :C  ET      :R  INFIL:S  HYDROL :R  SOM    :G         
                  CO2 341ppm  NSWIT   :1  EVAP :S  SOIL   :2  STEMP  :D         
 MANAGEMENT OPT : PLANTING:R  IRRIG   :N  FERT :D  RESIDUE:R  HARVEST:M         
                  WEATHER :M  TILLAGE :N                                        
                                                                                
*SUMMARY OF SOIL AND GENETIC INPUT PARAMETERS                                   
                                                                                
   SOIL LOWER UPPER   SAT  EXTR  INIT   ROOT   BULK     pH    NO3    NH4    ORG 
  DEPTH LIMIT LIMIT    SW    SW    SW   DIST   DENS                          C  
   cm   cm3/cm3    cm3/cm3    cm3/cm3         g/cm3         ugN/g  ugN/g     %  
------------------------------------------------------------------------------- 
  0-  5 0.215 0.331 0.341 0.116 0.331   1.00   1.68   6.70   0.00   0.00   0.75 
  5- 15 0.215 0.331 0.341 0.116 0.331   1.00   1.68   6.70   0.00   0.00   0.75 
 15- 25 0.215 0.331 0.341 0.116 0.331   1.00   1.68   6.70   0.00   0.00   0.75 
 25- 35 0.181 0.291 0.364 0.110 0.291   0.50   1.61   7.20   0.00   0.00   0.53 
 35- 45 0.181 0.291 0.364 0.110 0.291   0.50   1.61   7.20   0.00   0.00   0.53 
 45- 67 0.096 0.169 0.404 0.073 0.169   0.27   1.51   7.00   0.00   0.00   0.05 
 67- 90 0.096 0.169 0.404 0.073 0.169   0.27   1.51   7.00   0.00   0.00   0.05 
                                                                                
TOT- 90  13.3  21.7  34.0   8.4  21.7  <--cm   -  kg/ha-->    0.0    0.0  51964 
SOIL ALBEDO    : 0.09      EVAPORATION LIMIT : 6.00         MIN. FACTOR  : 1.00 
RUNOFF CURVE # :76.00      DRAINAGE RATE     : 0.60         FERT. FACTOR : 1.00 
                                                                                
 Maize      CULTIVAR :CI0003-FNC3056            ECOTYPE :IB0001                 
 P1     : 233.00  P2     : 0.5000  P5     : 976.00                              
 G2     : 956.00  G3     :  7.500  PHINT  : 45.600                              


*SIMULATED CROP AND SOIL STATUS AT MAIN DEVELOPMENT STAGES

 RUN NO.     4     P04/17                  

        CROP GROWTH     BIOMASS         LEAF   CROP N     STRESS      STRESS                                           
   DATE  AGE STAGE        kg/ha    LAI   NUM  kg/ha  %   H2O  Nitr Phos1 Phos2  RSTG                                   
 ------  --- ----------   -----  -----  ----  ---  ---  ----  ----  ----  ----  ----                                   
 18 MAR    0 Start Sim        0   0.00   0.0    0  0.0  0.00  0.00  0.00  0.00     7
 17 APR    0 Sowing           0   0.00   0.0    0  0.0  0.00  0.00  0.00  0.00     8
 18 APR    1 Germinate        0   0.00   0.0    0  0.0  0.00  0.00  0.00  0.00     9
 23 APR    6 Emergence       25   0.00   2.1    1  4.4  0.00  0.01  0.00  0.00     1
  6 MAY   19 End Juveni      71   0.16   7.6    3  3.7  0.00  0.00  0.00  0.00     2
 14 MAY   27 Floral Ini     266   0.50  10.6   10  3.6  0.00  0.00  0.00  0.00     3
 22 JUN   66 75% Silkin    6232   3.27  22.3  122  2.0  0.05  0.00  0.00  0.00     4
  2 JUL   76 Beg Gr Fil    6823   2.35  22.3  123  1.8  0.77  0.00  0.00  0.00     5
 14 AUG  119 End Gr Fil    8247   0.42  22.3  123  1.5  0.85  0.00  0.00  0.00     6
 17 AUG  122 Maturity      8247   0.42  22.3  123  1.5  0.32  0.00  0.00  0.00    10
 17 AUG  122 Harvest       8247   0.42  22.3  123  1.5  0.00  0.00  0.00  0.00    10


*MAIN GROWTH AND DEVELOPMENT VARIABLES

@     VARIABLE                                         SIMULATED     MEASURED
      --------                                         ---------     --------
      Anthesis day (dap)                                      66          -99
      Physiological maturity day (dap)                       122          -99
      Yield at harvest maturity (kg [dm]/ha)                2640          -99
      Number at maturity (no/m2)                            1469          -99
      Unit wt at maturity (g [dm]/unit)                   0.1797          -99
      Number at maturity (no/unit)                         236.9          -99
      Tops weight at maturity (kg [dm]/ha)                  8247          -99
      By-product produced (stalk) at maturity (kg[dm]/ha    5663          -99
      Leaf area index, maximum                              3.31          -99
      Harvest index at maturity                            0.320          -99
      Grain N at maturity (kg/ha)                             49          -99
      Tops N at maturity (kg/ha)                             123          -99
      Stem N at maturity (kg/ha)                              74          -99
      Grain N at maturity (%)                                1.9          -99
      Tops weight at anthesis (kg [dm]/ha)                  6020          -99
      Tops N at anthesis (kg/ha)                             120          -99
      Leaf number per stem at maturity                     22.27          -99
      Emergence day (dap)                                      6          -99


*ENVIRONMENTAL AND STRESS FACTORS

 |-----Development Phase------|--------------------------------------Environment--------------------------------------|-----------------Stress-----------------|
                              |---------------Average--------------|-----Cumulative-----|--------Count of days--------|          (0=Min, 1=Max Stress)         |
                         Time  Temp  Temp  Temp Solar Photop                Evapo    Pot TMIN TMIN TMAX TMAX TMAX RAIN|----Water----|---Nitrogen--|-Phosphorus-|
                         Span   Max   Min  Mean   Rad  [day]    CO2   Rain  Trans     ET   <    <    >    >    >    >   Photo         Photo         Photo
                         days    邂    邂    邂 MJ/m2     hr    ppm     mm     mm     mm  0邂  2邂 30邂 32邂 34邂  0mm  synth Growth  synth Growth  synth Growth
----------------------------------------------------------------------------------------------------------------------------------------------------------------
 Emergence-End Juvenile    13  30.1  19.7  24.9  13.7  24.00  340.9   74.7   30.5   49.7    0    0    8    1    0    9  0.000  0.000  0.002  0.005  0.000  0.000
 End Juvenil-Floral Init    8  29.7  19.8  24.8  13.5  24.00  340.9   18.4   20.7   29.4    0    0    4    0    0    4  0.000  0.000  0.000  0.001  0.000  0.000
 Floral Init-End Lf Grow   39  29.7  19.2  24.5  15.3  24.00  341.0  178.9  140.6  146.4    0    0   13    0    0   21  0.021  0.054  0.000  0.000  0.000  0.000
 End Lf Grth-Beg Grn Fil   10  31.5  18.5  25.0  17.8  24.00  341.1    0.0   20.2   42.8    0    0    7    3    1    0  0.564  0.681  0.000  0.000  0.000  0.000
 Grain Filling Phase       43  32.3  18.2  25.2  19.2  24.00  341.1   38.1   52.1  210.2    0    0   41   21    6    9  0.804  0.847  0.000  0.000  0.000  0.000


 Planting to Harvest      122  30.9  18.9  24.9  16.5  24.00  341.0  346.6  281.1  516.2    0    0   79   28    9   50  0.351  0.387  0.000  0.001  0.000  0.000
----------------------------------------------------------------------------------------------------------------------------------------------------------------


*Resource Productivity
 Growing season length: 122 days 

 Precipitation during growing season       346.6 mm[rain]
   Dry Matter Productivity                  2.38 kg[DM]/m3[rain]          =   23.8 kg[DM]/ha per mm[rain]
   Yield Productivity                       0.76 kg[grain yield]/m3[rain] =    7.6 kg[yield]/ha per mm[rain]

 Evapotranspiration during growing season  281.1 mm[ET]
   Dry Matter Productivity                  2.93 kg[DM]/m3[ET]            =   29.3 kg[DM]/ha per mm[ET]
   Yield Productivity                       0.94 kg[grain yield]/m3[ET]   =    9.4 kg[yield]/ha per mm[ET]

 Transpiration during growing season       145.7 mm[EP]
   Dry Matter Productivity                  5.66 kg[DM]/m3[EP]            =   56.6 kg[DM]/ha per mm[EP]
   Yield Productivity                       1.81 kg[grain yield]/m3[EP]   =   18.1 kg[yield]/ha per mm[EP]

 N applied during growing season            161. kg[N applied]/ha
   Dry Matter Productivity                  51.2 kg[DM]/kg[N applied]
   Yield Productivity                       16.4 kg[yield]/kg[N applied]

 N uptake during growing season              135 kg[N uptake]/ha
   Dry Matter Productivity                  61.1 kg[DM]/kg[N uptake]
   Yield Productivity                       19.6 kg[yield]/kg[N uptake]

--------------------------------------------------------------------------------------------------------------

                     Maize YIELD :     2640 kg/ha    [Dry weight] 

**************************************************************************************************************

*DSSAT Cropping System Model Ver. 4.6.1.000 -release      OCT 24, 2017; 10:35:20
                                                                                
*RUN   5        : P04/22                    MZCER046 ANBU1982    5              
 MODEL          : MZCER046 - Maize                                              
 EXPERIMENT     : ANBU1982 MZ  Analisis a침os de bajo rendimiento Buga          
 DATA PATH      : C:\DSSAT46\maize\                                             
 TREATMENT  5   : P04/22                    MZCER046                            
                                                                                
                                                                                
 CROP           : Maize            CULTIVAR : FNC3056          ECOTYPE :IB0001  
 STARTING DATE  : MAR 23 1982                                                   
 PLANTING DATE  : APR 22 1982        PLANTS/m2 :  6.2     ROW SPACING :  80.cm  
 WEATHER        : CUNI   1982                                                   
 SOIL           : CCBUGA2017     TEXTURE : CL    -   Suelo Buga MADR Fase I     
 SOIL INITIAL C : DEPTH: 90cm EXTR. H2O: 83.9mm  NO3:  0.0kg/ha  NH4:  0.0kg/ha 
 WATER BALANCE  : RAINFED                                                       
 IRRIGATION     : NOT IRRIGATED                                                 
 NITROGEN BAL.  : SOIL-N & N-UPTAKE SIMULATION; NO N-FIXATION                   
 N-FERTILIZER   :      161 kg/ha IN     5 APPLICATIONS                          
 RESIDUE/MANURE : INITIAL :     0 kg/ha ;       0 kg/ha IN     0 APPLICATIONS   
 ENVIRONM. OPT. : DAYL=    0.00  SRAD=    0.00  TMAX=    0.00  TMIN=    0.00    
                  RAIN=    0.00  CO2 =    0.00  DEW =    0.00  WIND=    0.00    
 SIMULATION OPT : WATER   :Y  NITROGEN:Y  N-FIX:N  PHOSPH :N  PESTS  :N         
                  PHOTO   :C  ET      :R  INFIL:S  HYDROL :R  SOM    :G         
                  CO2 341ppm  NSWIT   :1  EVAP :S  SOIL   :2  STEMP  :D         
 MANAGEMENT OPT : PLANTING:R  IRRIG   :N  FERT :D  RESIDUE:R  HARVEST:M         
                  WEATHER :M  TILLAGE :N                                        
                                                                                
*SUMMARY OF SOIL AND GENETIC INPUT PARAMETERS                                   
                                                                                
   SOIL LOWER UPPER   SAT  EXTR  INIT   ROOT   BULK     pH    NO3    NH4    ORG 
  DEPTH LIMIT LIMIT    SW    SW    SW   DIST   DENS                          C  
   cm   cm3/cm3    cm3/cm3    cm3/cm3         g/cm3         ugN/g  ugN/g     %  
------------------------------------------------------------------------------- 
  0-  5 0.215 0.331 0.341 0.116 0.331   1.00   1.68   6.70   0.00   0.00   0.75 
  5- 15 0.215 0.331 0.341 0.116 0.331   1.00   1.68   6.70   0.00   0.00   0.75 
 15- 25 0.215 0.331 0.341 0.116 0.331   1.00   1.68   6.70   0.00   0.00   0.75 
 25- 35 0.181 0.291 0.364 0.110 0.291   0.50   1.61   7.20   0.00   0.00   0.53 
 35- 45 0.181 0.291 0.364 0.110 0.291   0.50   1.61   7.20   0.00   0.00   0.53 
 45- 67 0.096 0.169 0.404 0.073 0.169   0.27   1.51   7.00   0.00   0.00   0.05 
 67- 90 0.096 0.169 0.404 0.073 0.169   0.27   1.51   7.00   0.00   0.00   0.05 
                                                                                
TOT- 90  13.3  21.7  34.0   8.4  21.7  <--cm   -  kg/ha-->    0.0    0.0  51964 
SOIL ALBEDO    : 0.09      EVAPORATION LIMIT : 6.00         MIN. FACTOR  : 1.00 
RUNOFF CURVE # :76.00      DRAINAGE RATE     : 0.60         FERT. FACTOR : 1.00 
                                                                                
 Maize      CULTIVAR :CI0003-FNC3056            ECOTYPE :IB0001                 
 P1     : 233.00  P2     : 0.5000  P5     : 976.00                              
 G2     : 956.00  G3     :  7.500  PHINT  : 45.600                              


*SIMULATED CROP AND SOIL STATUS AT MAIN DEVELOPMENT STAGES

 RUN NO.     5     P04/22                  

        CROP GROWTH     BIOMASS         LEAF   CROP N     STRESS      STRESS                                           
   DATE  AGE STAGE        kg/ha    LAI   NUM  kg/ha  %   H2O  Nitr Phos1 Phos2  RSTG                                   
 ------  --- ----------   -----  -----  ----  ---  ---  ----  ----  ----  ----  ----                                   
 23 MAR    0 Start Sim        0   0.00   0.0    0  0.0  0.00  0.00  0.00  0.00     7
 22 APR    0 Sowing           0   0.00   0.0    0  0.0  0.00  0.00  0.00  0.00     8
 23 APR    1 Germinate        0   0.00   0.0    0  0.0  0.00  0.00  0.00  0.00     9
 28 APR    6 Emergence       25   0.00   2.0    1  4.4  0.00  0.01  0.00  0.00     1
 11 MAY   19 End Juveni      60   0.13   7.5    2  3.3  0.00  0.00  0.00  0.00     2
 19 MAY   27 Floral Ini     238   0.45  10.6    9  3.6  0.00  0.00  0.00  0.00     3
 26 JUN   65 75% Silkin    5791   3.03  22.1  121  2.1  0.13  0.00  0.00  0.00     4
  6 JUL   75 Beg Gr Fil    6349   2.25  22.1  122  1.9  0.66  0.00  0.00  0.00     5
 19 AUG  119 End Gr Fil    7726   0.40  22.1  122  1.6  0.81  0.00  0.00  0.00     6
 21 AUG  121 Maturity      7726   0.40  22.1  122  1.6  0.00  0.00  0.00  0.00    10
 21 AUG  121 Harvest       7726   0.40  22.1  122  1.6  0.00  0.00  0.00  0.00    10


*MAIN GROWTH AND DEVELOPMENT VARIABLES

@     VARIABLE                                         SIMULATED     MEASURED
      --------                                         ---------     --------
      Anthesis day (dap)                                      65          -99
      Physiological maturity day (dap)                       121          -99
      Yield at harvest maturity (kg [dm]/ha)                2441          -99
      Number at maturity (no/m2)                            1279          -99
      Unit wt at maturity (g [dm]/unit)                   0.1909          -99
      Number at maturity (no/unit)                         206.3          -99
      Tops weight at maturity (kg [dm]/ha)                  7726          -99
      By-product produced (stalk) at maturity (kg[dm]/ha    5339          -99
      Leaf area index, maximum                              3.21          -99
      Harvest index at maturity                            0.316          -99
      Grain N at maturity (kg/ha)                             45          -99
      Tops N at maturity (kg/ha)                             122          -99
      Stem N at maturity (kg/ha)                              77          -99
      Grain N at maturity (%)                                1.9          -99
      Tops weight at anthesis (kg [dm]/ha)                  5672          -99
      Tops N at anthesis (kg/ha)                             121          -99
      Leaf number per stem at maturity                     22.14          -99
      Emergence day (dap)                                      6          -99


*ENVIRONMENTAL AND STRESS FACTORS

 |-----Development Phase------|--------------------------------------Environment--------------------------------------|-----------------Stress-----------------|
                              |---------------Average--------------|-----Cumulative-----|--------Count of days--------|          (0=Min, 1=Max Stress)         |
                         Time  Temp  Temp  Temp Solar Photop                Evapo    Pot TMIN TMIN TMAX TMAX TMAX RAIN|----Water----|---Nitrogen--|-Phosphorus-|
                         Span   Max   Min  Mean   Rad  [day]    CO2   Rain  Trans     ET   <    <    >    >    >    >   Photo         Photo         Photo
                         days    邂    邂    邂 MJ/m2     hr    ppm     mm     mm     mm  0邂  2邂 30邂 32邂 34邂  0mm  synth Growth  synth Growth  synth Growth
----------------------------------------------------------------------------------------------------------------------------------------------------------------
 Emergence-End Juvenile    13  29.4  19.8  24.6  12.4  24.00  340.9   84.5   37.8   44.8    0    0    5    0    0    8  0.000  0.000  0.002  0.005  0.000  0.000
 End Juvenil-Floral Init    8  30.2  19.5  24.9  15.7  24.00  340.9   58.7   24.5   34.3    0    0    4    0    0    6  0.000  0.000  0.000  0.000  0.000  0.000
 Floral Init-End Lf Grow   38  29.8  19.2  24.5  15.4  24.00  341.0  125.4  134.6  144.1    0    0   14    0    0   17  0.060  0.114  0.000  0.000  0.000  0.000
 End Lf Grth-Beg Grn Fil   10  31.7  18.5  25.1  18.2  24.00  341.1   25.6   19.1   43.9    0    0    9    3    1    2  0.643  0.729  0.000  0.000  0.000  0.000
 Grain Filling Phase       44  32.6  18.2  25.4  19.5  24.00  341.1   39.9   58.7  221.5    0    0   42   26    9    9  0.764  0.805  0.000  0.000  0.000  0.000


 Planting to Harvest      121  31.1  18.9  25.0  16.9  24.00  341.0  338.8  286.8  524.8    0    0   81   32   11   46  0.350  0.389  0.000  0.001  0.000  0.000
----------------------------------------------------------------------------------------------------------------------------------------------------------------


*Resource Productivity
 Growing season length: 121 days 

 Precipitation during growing season       338.8 mm[rain]
   Dry Matter Productivity                  2.28 kg[DM]/m3[rain]          =   22.8 kg[DM]/ha per mm[rain]
   Yield Productivity                       0.72 kg[grain yield]/m3[rain] =    7.2 kg[yield]/ha per mm[rain]

 Evapotranspiration during growing season  286.8 mm[ET]
   Dry Matter Productivity                  2.69 kg[DM]/m3[ET]            =   26.9 kg[DM]/ha per mm[ET]
   Yield Productivity                       0.85 kg[grain yield]/m3[ET]   =    8.5 kg[yield]/ha per mm[ET]

 Transpiration during growing season       137.3 mm[EP]
   Dry Matter Productivity                  5.63 kg[DM]/m3[EP]            =   56.3 kg[DM]/ha per mm[EP]
   Yield Productivity                       1.78 kg[grain yield]/m3[EP]   =   17.8 kg[yield]/ha per mm[EP]

 N applied during growing season            161. kg[N applied]/ha
   Dry Matter Productivity                  48.0 kg[DM]/kg[N applied]
   Yield Productivity                       15.2 kg[yield]/kg[N applied]

 N uptake during growing season              132 kg[N uptake]/ha
   Dry Matter Productivity                  58.5 kg[DM]/kg[N uptake]
   Yield Productivity                       18.5 kg[yield]/kg[N uptake]

--------------------------------------------------------------------------------------------------------------

                     Maize YIELD :     2441 kg/ha    [Dry weight] 

**************************************************************************************************************

*DSSAT Cropping System Model Ver. 4.6.1.000 -release      OCT 24, 2017; 10:35:20
                                                                                
*RUN   6        : P04/27                    MZCER046 ANBU1982    6              
 MODEL          : MZCER046 - Maize                                              
 EXPERIMENT     : ANBU1982 MZ  Analisis a침os de bajo rendimiento Buga          
 DATA PATH      : C:\DSSAT46\maize\                                             
 TREATMENT  6   : P04/27                    MZCER046                            
                                                                                
                                                                                
 CROP           : Maize            CULTIVAR : FNC3056          ECOTYPE :IB0001  
 STARTING DATE  : MAR 28 1982                                                   
 PLANTING DATE  : APR 27 1982        PLANTS/m2 :  6.2     ROW SPACING :  80.cm  
 WEATHER        : CUNI   1982                                                   
 SOIL           : CCBUGA2017     TEXTURE : CL    -   Suelo Buga MADR Fase I     
 SOIL INITIAL C : DEPTH: 90cm EXTR. H2O: 83.9mm  NO3:  0.0kg/ha  NH4:  0.0kg/ha 
 WATER BALANCE  : RAINFED                                                       
 IRRIGATION     : NOT IRRIGATED                                                 
 NITROGEN BAL.  : SOIL-N & N-UPTAKE SIMULATION; NO N-FIXATION                   
 N-FERTILIZER   :      161 kg/ha IN     5 APPLICATIONS                          
 RESIDUE/MANURE : INITIAL :     0 kg/ha ;       0 kg/ha IN     0 APPLICATIONS   
 ENVIRONM. OPT. : DAYL=    0.00  SRAD=    0.00  TMAX=    0.00  TMIN=    0.00    
                  RAIN=    0.00  CO2 =    0.00  DEW =    0.00  WIND=    0.00    
 SIMULATION OPT : WATER   :Y  NITROGEN:Y  N-FIX:N  PHOSPH :N  PESTS  :N         
                  PHOTO   :C  ET      :R  INFIL:S  HYDROL :R  SOM    :G         
                  CO2 341ppm  NSWIT   :1  EVAP :S  SOIL   :2  STEMP  :D         
 MANAGEMENT OPT : PLANTING:R  IRRIG   :N  FERT :D  RESIDUE:R  HARVEST:M         
                  WEATHER :M  TILLAGE :N                                        
                                                                                
*SUMMARY OF SOIL AND GENETIC INPUT PARAMETERS                                   
                                                                                
   SOIL LOWER UPPER   SAT  EXTR  INIT   ROOT   BULK     pH    NO3    NH4    ORG 
  DEPTH LIMIT LIMIT    SW    SW    SW   DIST   DENS                          C  
   cm   cm3/cm3    cm3/cm3    cm3/cm3         g/cm3         ugN/g  ugN/g     %  
------------------------------------------------------------------------------- 
  0-  5 0.215 0.331 0.341 0.116 0.331   1.00   1.68   6.70   0.00   0.00   0.75 
  5- 15 0.215 0.331 0.341 0.116 0.331   1.00   1.68   6.70   0.00   0.00   0.75 
 15- 25 0.215 0.331 0.341 0.116 0.331   1.00   1.68   6.70   0.00   0.00   0.75 
 25- 35 0.181 0.291 0.364 0.110 0.291   0.50   1.61   7.20   0.00   0.00   0.53 
 35- 45 0.181 0.291 0.364 0.110 0.291   0.50   1.61   7.20   0.00   0.00   0.53 
 45- 67 0.096 0.169 0.404 0.073 0.169   0.27   1.51   7.00   0.00   0.00   0.05 
 67- 90 0.096 0.169 0.404 0.073 0.169   0.27   1.51   7.00   0.00   0.00   0.05 
                                                                                
TOT- 90  13.3  21.7  34.0   8.4  21.7  <--cm   -  kg/ha-->    0.0    0.0  51964 
SOIL ALBEDO    : 0.09      EVAPORATION LIMIT : 6.00         MIN. FACTOR  : 1.00 
RUNOFF CURVE # :76.00      DRAINAGE RATE     : 0.60         FERT. FACTOR : 1.00 
                                                                                
 Maize      CULTIVAR :CI0003-FNC3056            ECOTYPE :IB0001                 
 P1     : 233.00  P2     : 0.5000  P5     : 976.00                              
 G2     : 956.00  G3     :  7.500  PHINT  : 45.600                              


*SIMULATED CROP AND SOIL STATUS AT MAIN DEVELOPMENT STAGES

 RUN NO.     6     P04/27                  

        CROP GROWTH     BIOMASS         LEAF   CROP N     STRESS      STRESS                                           
   DATE  AGE STAGE        kg/ha    LAI   NUM  kg/ha  %   H2O  Nitr Phos1 Phos2  RSTG                                   
 ------  --- ----------   -----  -----  ----  ---  ---  ----  ----  ----  ----  ----                                   
 28 MAR    0 Start Sim        0   0.00   0.0    0  0.0  0.00  0.00  0.00  0.00     7
 27 APR    0 Sowing           0   0.00   0.0    0  0.0  0.00  0.00  0.00  0.00     8
 28 APR    1 Germinate        0   0.00   0.0    0  0.0  0.00  0.00  0.00  0.00     9
  3 MAY    6 Emergence       25   0.00   2.1    1  4.4  0.00  0.01  0.00  0.00     1
 16 MAY   19 End Juveni      74   0.16   7.6    3  3.4  0.00  0.00  0.00  0.00     2
 24 MAY   27 Floral Ini     241   0.46  10.5    9  3.6  0.00  0.00  0.00  0.00     3
  1 JUL   65 75% Silkin    5214   2.44  21.8  107  2.1  0.25  0.00  0.00  0.00     4
 11 JUL   75 Beg Gr Fil    6433   1.99  21.8  107  1.7  0.50  0.00  0.00  0.00     5
 23 AUG  118 End Gr Fil    7931   0.41  21.8  107  1.4  0.78  0.00  0.00  0.00     6
 25 AUG  120 Maturity      7931   0.41  21.8  107  1.4  0.81  0.00  0.00  0.00    10
 25 AUG  120 Harvest       7931   0.41  21.8  107  1.4  0.00  0.00  0.00  0.00    10


*MAIN GROWTH AND DEVELOPMENT VARIABLES

@     VARIABLE                                         SIMULATED     MEASURED
      --------                                         ---------     --------
      Anthesis day (dap)                                      65          -99
      Physiological maturity day (dap)                       120          -99
      Yield at harvest maturity (kg [dm]/ha)                2611          -99
      Number at maturity (no/m2)                            1958          -99
      Unit wt at maturity (g [dm]/unit)                   0.1334          -99
      Number at maturity (no/unit)                         315.8          -99
      Tops weight at maturity (kg [dm]/ha)                  7931          -99
      By-product produced (stalk) at maturity (kg[dm]/ha    5374          -99
      Leaf area index, maximum                              2.87          -99
      Harvest index at maturity                            0.329          -99
      Grain N at maturity (kg/ha)                             48          -99
      Tops N at maturity (kg/ha)                             107          -99
      Stem N at maturity (kg/ha)                              59          -99
      Grain N at maturity (%)                                1.9          -99
      Tops weight at anthesis (kg [dm]/ha)                  5095          -99
      Tops N at anthesis (kg/ha)                             107          -99
      Leaf number per stem at maturity                     21.82          -99
      Emergence day (dap)                                      6          -99


*ENVIRONMENTAL AND STRESS FACTORS

 |-----Development Phase------|--------------------------------------Environment--------------------------------------|-----------------Stress-----------------|
                              |---------------Average--------------|-----Cumulative-----|--------Count of days--------|          (0=Min, 1=Max Stress)         |
                         Time  Temp  Temp  Temp Solar Photop                Evapo    Pot TMIN TMIN TMAX TMAX TMAX RAIN|----Water----|---Nitrogen--|-Phosphorus-|
                         Span   Max   Min  Mean   Rad  [day]    CO2   Rain  Trans     ET   <    <    >    >    >    >   Photo         Photo         Photo
                         days    邂    邂    邂 MJ/m2     hr    ppm     mm     mm     mm  0邂  2邂 30邂 32邂 34邂  0mm  synth Growth  synth Growth  synth Growth
----------------------------------------------------------------------------------------------------------------------------------------------------------------
 Emergence-End Juvenile    13  30.1  19.9  25.0  13.6  24.00  340.9   37.1   36.7   49.6    0    0    7    0    0    8  0.000  0.000  0.002  0.005  0.000  0.000
 End Juvenil-Floral Init    8  28.8  19.3  24.0  15.3  24.00  341.0  100.4   32.8   32.8    0    0    0    0    0    6  0.000  0.000  0.000  0.001  0.000  0.000
 Floral Init-End Lf Grow   38  30.3  19.0  24.6  15.9  24.00  341.0   67.8  121.7  149.1    0    0   18    2    1   13  0.172  0.238  0.000  0.000  0.000  0.000
 End Lf Grth-Beg Grn Fil   10  31.5  18.5  25.0  18.4  24.00  341.1   25.6   30.0   44.8    0    0   10    2    0    2  0.378  0.486  0.000  0.000  0.000  0.000
 Grain Filling Phase       43  32.9  18.3  25.6  19.6  24.00  341.1   40.2   51.5  220.8    0    0   41   29   11   10  0.739  0.780  0.000  0.000  0.000  0.000


 Planting to Harvest      120  31.2  18.8  25.0  17.1  24.00  341.0  336.7  288.4  529.2    0    0   81   35   13   44  0.362  0.408  0.000  0.001  0.000  0.000
----------------------------------------------------------------------------------------------------------------------------------------------------------------


*Resource Productivity
 Growing season length: 120 days 

 Precipitation during growing season       336.7 mm[rain]
   Dry Matter Productivity                  2.36 kg[DM]/m3[rain]          =   23.6 kg[DM]/ha per mm[rain]
   Yield Productivity                       0.78 kg[grain yield]/m3[rain] =    7.8 kg[yield]/ha per mm[rain]

 Evapotranspiration during growing season  288.4 mm[ET]
   Dry Matter Productivity                  2.75 kg[DM]/m3[ET]            =   27.5 kg[DM]/ha per mm[ET]
   Yield Productivity                       0.91 kg[grain yield]/m3[ET]   =    9.1 kg[yield]/ha per mm[ET]

 Transpiration during growing season       130.5 mm[EP]
   Dry Matter Productivity                  6.08 kg[DM]/m3[EP]            =   60.8 kg[DM]/ha per mm[EP]
   Yield Productivity                       2.00 kg[grain yield]/m3[EP]   =   20.0 kg[yield]/ha per mm[EP]

 N applied during growing season            161. kg[N applied]/ha
   Dry Matter Productivity                  49.3 kg[DM]/kg[N applied]
   Yield Productivity                       16.2 kg[yield]/kg[N applied]

 N uptake during growing season              116 kg[N uptake]/ha
   Dry Matter Productivity                  68.4 kg[DM]/kg[N uptake]
   Yield Productivity                       22.5 kg[yield]/kg[N uptake]

--------------------------------------------------------------------------------------------------------------

                     Maize YIELD :     2611 kg/ha    [Dry weight] 

**************************************************************************************************************

*DSSAT Cropping System Model Ver. 4.6.1.000 -release      OCT 24, 2017; 10:35:20
                                                                                
*RUN   7        : P05/02                    MZCER046 ANBU1982    7              
 MODEL          : MZCER046 - Maize                                              
 EXPERIMENT     : ANBU1982 MZ  Analisis a침os de bajo rendimiento Buga          
 DATA PATH      : C:\DSSAT46\maize\                                             
 TREATMENT  7   : P05/02                    MZCER046                            
                                                                                
                                                                                
 CROP           : Maize            CULTIVAR : FNC3056          ECOTYPE :IB0001  
 STARTING DATE  : APR  2 1982                                                   
 PLANTING DATE  : MAY  2 1982        PLANTS/m2 :  6.2     ROW SPACING :  80.cm  
 WEATHER        : CUNI   1982                                                   
 SOIL           : CCBUGA2017     TEXTURE : CL    -   Suelo Buga MADR Fase I     
 SOIL INITIAL C : DEPTH: 90cm EXTR. H2O: 83.9mm  NO3:  0.0kg/ha  NH4:  0.0kg/ha 
 WATER BALANCE  : RAINFED                                                       
 IRRIGATION     : NOT IRRIGATED                                                 
 NITROGEN BAL.  : SOIL-N & N-UPTAKE SIMULATION; NO N-FIXATION                   
 N-FERTILIZER   :      161 kg/ha IN     5 APPLICATIONS                          
 RESIDUE/MANURE : INITIAL :     0 kg/ha ;       0 kg/ha IN     0 APPLICATIONS   
 ENVIRONM. OPT. : DAYL=    0.00  SRAD=    0.00  TMAX=    0.00  TMIN=    0.00    
                  RAIN=    0.00  CO2 =    0.00  DEW =    0.00  WIND=    0.00    
 SIMULATION OPT : WATER   :Y  NITROGEN:Y  N-FIX:N  PHOSPH :N  PESTS  :N         
                  PHOTO   :C  ET      :R  INFIL:S  HYDROL :R  SOM    :G         
                  CO2 341ppm  NSWIT   :1  EVAP :S  SOIL   :2  STEMP  :D         
 MANAGEMENT OPT : PLANTING:R  IRRIG   :N  FERT :D  RESIDUE:R  HARVEST:M         
                  WEATHER :M  TILLAGE :N                                        
                                                                                
*SUMMARY OF SOIL AND GENETIC INPUT PARAMETERS                                   
                                                                                
   SOIL LOWER UPPER   SAT  EXTR  INIT   ROOT   BULK     pH    NO3    NH4    ORG 
  DEPTH LIMIT LIMIT    SW    SW    SW   DIST   DENS                          C  
   cm   cm3/cm3    cm3/cm3    cm3/cm3         g/cm3         ugN/g  ugN/g     %  
------------------------------------------------------------------------------- 
  0-  5 0.215 0.331 0.341 0.116 0.331   1.00   1.68   6.70   0.00   0.00   0.75 
  5- 15 0.215 0.331 0.341 0.116 0.331   1.00   1.68   6.70   0.00   0.00   0.75 
 15- 25 0.215 0.331 0.341 0.116 0.331   1.00   1.68   6.70   0.00   0.00   0.75 
 25- 35 0.181 0.291 0.364 0.110 0.291   0.50   1.61   7.20   0.00   0.00   0.53 
 35- 45 0.181 0.291 0.364 0.110 0.291   0.50   1.61   7.20   0.00   0.00   0.53 
 45- 67 0.096 0.169 0.404 0.073 0.169   0.27   1.51   7.00   0.00   0.00   0.05 
 67- 90 0.096 0.169 0.404 0.073 0.169   0.27   1.51   7.00   0.00   0.00   0.05 
                                                                                
TOT- 90  13.3  21.7  34.0   8.4  21.7  <--cm   -  kg/ha-->    0.0    0.0  51964 
SOIL ALBEDO    : 0.09      EVAPORATION LIMIT : 6.00         MIN. FACTOR  : 1.00 
RUNOFF CURVE # :76.00      DRAINAGE RATE     : 0.60         FERT. FACTOR : 1.00 
                                                                                
 Maize      CULTIVAR :CI0003-FNC3056            ECOTYPE :IB0001                 
 P1     : 233.00  P2     : 0.5000  P5     : 976.00                              
 G2     : 956.00  G3     :  7.500  PHINT  : 45.600                              


*SIMULATED CROP AND SOIL STATUS AT MAIN DEVELOPMENT STAGES

 RUN NO.     7     P05/02                  

        CROP GROWTH     BIOMASS         LEAF   CROP N     STRESS      STRESS                                           
   DATE  AGE STAGE        kg/ha    LAI   NUM  kg/ha  %   H2O  Nitr Phos1 Phos2  RSTG                                   
 ------  --- ----------   -----  -----  ----  ---  ---  ----  ----  ----  ----  ----                                   
  2 APR    0 Start Sim        0   0.00   0.0    0  0.0  0.00  0.00  0.00  0.00     7
  2 MAY    0 Sowing           0   0.00   0.0    0  0.0  0.00  0.00  0.00  0.00     8
  3 MAY    1 Germinate        0   0.00   0.0    0  0.0  0.00  0.00  0.00  0.00     9
  8 MAY    6 Emergence       25   0.00   2.0    1  4.4  0.00  0.01  0.00  0.00     1
 21 MAY   19 End Juveni      64   0.14   7.5    2  3.5  0.00  0.00  0.00  0.00     2
 29 MAY   27 Floral Ini     271   0.50  10.4   10  3.6  0.00  0.00  0.00  0.00     3
  5 JUL   64 75% Silkin    4122   1.84  21.8   90  2.2  0.36  0.00  0.00  0.00     4
 15 JUL   74 Beg Gr Fil    5156   1.48  21.8   90  1.8  0.54  0.00  0.00  0.00     5
 27 AUG  117 End Gr Fil    6513   0.32  21.8   90  1.4  0.76  0.00  0.00  0.00     6
 30 AUG  120 Maturity      6513   0.32  21.8   90  1.4  0.88  0.00  0.00  0.00    10
 30 AUG  120 Harvest       6513   0.32  21.8   90  1.4  0.00  0.00  0.00  0.00    10


*MAIN GROWTH AND DEVELOPMENT VARIABLES

@     VARIABLE                                         SIMULATED     MEASURED
      --------                                         ---------     --------
      Anthesis day (dap)                                      64          -99
      Physiological maturity day (dap)                       120          -99
      Yield at harvest maturity (kg [dm]/ha)                2320          -99
      Number at maturity (no/m2)                            1809          -99
      Unit wt at maturity (g [dm]/unit)                   0.1282          -99
      Number at maturity (no/unit)                         291.8          -99
      Tops weight at maturity (kg [dm]/ha)                  6513          -99
      By-product produced (stalk) at maturity (kg[dm]/ha    4242          -99
      Leaf area index, maximum                              2.58          -99
      Harvest index at maturity                            0.356          -99
      Grain N at maturity (kg/ha)                             43          -99
      Tops N at maturity (kg/ha)                              90          -99
      Stem N at maturity (kg/ha)                              47          -99
      Grain N at maturity (%)                                1.9          -99
      Tops weight at anthesis (kg [dm]/ha)                  3941          -99
      Tops N at anthesis (kg/ha)                              90          -99
      Leaf number per stem at maturity                     21.79          -99
      Emergence day (dap)                                      6          -99


*ENVIRONMENTAL AND STRESS FACTORS

 |-----Development Phase------|--------------------------------------Environment--------------------------------------|-----------------Stress-----------------|
                              |---------------Average--------------|-----Cumulative-----|--------Count of days--------|          (0=Min, 1=Max Stress)         |
                         Time  Temp  Temp  Temp Solar Photop                Evapo    Pot TMIN TMIN TMAX TMAX TMAX RAIN|----Water----|---Nitrogen--|-Phosphorus-|
                         Span   Max   Min  Mean   Rad  [day]    CO2   Rain  Trans     ET   <    <    >    >    >    >   Photo         Photo         Photo
                         days    邂    邂    邂 MJ/m2     hr    ppm     mm     mm     mm  0邂  2邂 30邂 32邂 34邂  0mm  synth Growth  synth Growth  synth Growth
----------------------------------------------------------------------------------------------------------------------------------------------------------------
 Emergence-End Juvenile    13  29.6  19.6  24.6  14.5  24.00  340.9   87.9   41.0   52.4    0    0    4    0    0    9  0.000  0.000  0.002  0.005  0.000  0.000
 End Juvenil-Floral Init    8  28.6  19.5  24.1  14.6  24.00  341.0   53.8   31.4   31.4    0    0    0    0    0    5  0.000  0.000  0.000  0.000  0.000  0.000
 Floral Init-End Lf Grow   37  30.6  18.9  24.8  16.3  24.00  341.0   61.9  100.8  149.3    0    0   22    3    1   11  0.293  0.362  0.000  0.000  0.000  0.000
 End Lf Grth-Beg Grn Fil   10  31.5  18.6  25.1  18.2  24.00  341.1   19.3   30.5   45.2    0    0    9    3    0    3  0.350  0.451  0.000  0.000  0.000  0.000
 Grain Filling Phase       43  33.2  18.3  25.7  20.0  24.00  341.1   35.2   48.8  228.4    0    0   42   31   14    8  0.713  0.763  0.000  0.000  0.000  0.000


 Planting to Harvest      120  31.5  18.8  25.1  17.5  23.99  341.0  272.2  275.1  547.9    0    0   83   40   18   40  0.395  0.444  0.000  0.001  0.000  0.000
----------------------------------------------------------------------------------------------------------------------------------------------------------------


*Resource Productivity
 Growing season length: 120 days 

 Precipitation during growing season       272.2 mm[rain]
   Dry Matter Productivity                  2.39 kg[DM]/m3[rain]          =   23.9 kg[DM]/ha per mm[rain]
   Yield Productivity                       0.85 kg[grain yield]/m3[rain] =    8.5 kg[yield]/ha per mm[rain]

 Evapotranspiration during growing season  275.1 mm[ET]
   Dry Matter Productivity                  2.37 kg[DM]/m3[ET]            =   23.7 kg[DM]/ha per mm[ET]
   Yield Productivity                       0.84 kg[grain yield]/m3[ET]   =    8.4 kg[yield]/ha per mm[ET]

 Transpiration during growing season       111.4 mm[EP]
   Dry Matter Productivity                  5.85 kg[DM]/m3[EP]            =   58.5 kg[DM]/ha per mm[EP]
   Yield Productivity                       2.08 kg[grain yield]/m3[EP]   =   20.8 kg[yield]/ha per mm[EP]

 N applied during growing season            161. kg[N applied]/ha
   Dry Matter Productivity                  40.5 kg[DM]/kg[N applied]
   Yield Productivity                       14.4 kg[yield]/kg[N applied]

 N uptake during growing season               98 kg[N uptake]/ha
   Dry Matter Productivity                  66.5 kg[DM]/kg[N uptake]
   Yield Productivity                       23.7 kg[yield]/kg[N uptake]

--------------------------------------------------------------------------------------------------------------

                     Maize YIELD :     2320 kg/ha    [Dry weight] 

**************************************************************************************************************

*DSSAT Cropping System Model Ver. 4.6.1.000 -release      OCT 24, 2017; 10:35:20
                                                                                
*RUN   8        : P05/07                    MZCER046 ANBU1982    8              
 MODEL          : MZCER046 - Maize                                              
 EXPERIMENT     : ANBU1982 MZ  Analisis a침os de bajo rendimiento Buga          
 DATA PATH      : C:\DSSAT46\maize\                                             
 TREATMENT  8   : P05/07                    MZCER046                            
                                                                                
                                                                                
 CROP           : Maize            CULTIVAR : FNC3056          ECOTYPE :IB0001  
 STARTING DATE  : APR  7 1982                                                   
 PLANTING DATE  : MAY  7 1982        PLANTS/m2 :  6.2     ROW SPACING :  80.cm  
 WEATHER        : CUNI   1982                                                   
 SOIL           : CCBUGA2017     TEXTURE : CL    -   Suelo Buga MADR Fase I     
 SOIL INITIAL C : DEPTH: 90cm EXTR. H2O: 83.9mm  NO3:  0.0kg/ha  NH4:  0.0kg/ha 
 WATER BALANCE  : RAINFED                                                       
 IRRIGATION     : NOT IRRIGATED                                                 
 NITROGEN BAL.  : SOIL-N & N-UPTAKE SIMULATION; NO N-FIXATION                   
 N-FERTILIZER   :      161 kg/ha IN     5 APPLICATIONS                          
 RESIDUE/MANURE : INITIAL :     0 kg/ha ;       0 kg/ha IN     0 APPLICATIONS   
 ENVIRONM. OPT. : DAYL=    0.00  SRAD=    0.00  TMAX=    0.00  TMIN=    0.00    
                  RAIN=    0.00  CO2 =    0.00  DEW =    0.00  WIND=    0.00    
 SIMULATION OPT : WATER   :Y  NITROGEN:Y  N-FIX:N  PHOSPH :N  PESTS  :N         
                  PHOTO   :C  ET      :R  INFIL:S  HYDROL :R  SOM    :G         
                  CO2 341ppm  NSWIT   :1  EVAP :S  SOIL   :2  STEMP  :D         
 MANAGEMENT OPT : PLANTING:R  IRRIG   :N  FERT :D  RESIDUE:R  HARVEST:M         
                  WEATHER :M  TILLAGE :N                                        
                                                                                
*SUMMARY OF SOIL AND GENETIC INPUT PARAMETERS                                   
                                                                                
   SOIL LOWER UPPER   SAT  EXTR  INIT   ROOT   BULK     pH    NO3    NH4    ORG 
  DEPTH LIMIT LIMIT    SW    SW    SW   DIST   DENS                          C  
   cm   cm3/cm3    cm3/cm3    cm3/cm3         g/cm3         ugN/g  ugN/g     %  
------------------------------------------------------------------------------- 
  0-  5 0.215 0.331 0.341 0.116 0.331   1.00   1.68   6.70   0.00   0.00   0.75 
  5- 15 0.215 0.331 0.341 0.116 0.331   1.00   1.68   6.70   0.00   0.00   0.75 
 15- 25 0.215 0.331 0.341 0.116 0.331   1.00   1.68   6.70   0.00   0.00   0.75 
 25- 35 0.181 0.291 0.364 0.110 0.291   0.50   1.61   7.20   0.00   0.00   0.53 
 35- 45 0.181 0.291 0.364 0.110 0.291   0.50   1.61   7.20   0.00   0.00   0.53 
 45- 67 0.096 0.169 0.404 0.073 0.169   0.27   1.51   7.00   0.00   0.00   0.05 
 67- 90 0.096 0.169 0.404 0.073 0.169   0.27   1.51   7.00   0.00   0.00   0.05 
                                                                                
TOT- 90  13.3  21.7  34.0   8.4  21.7  <--cm   -  kg/ha-->    0.0    0.0  51964 
SOIL ALBEDO    : 0.09      EVAPORATION LIMIT : 6.00         MIN. FACTOR  : 1.00 
RUNOFF CURVE # :76.00      DRAINAGE RATE     : 0.60         FERT. FACTOR : 1.00 
                                                                                
 Maize      CULTIVAR :CI0003-FNC3056            ECOTYPE :IB0001                 
 P1     : 233.00  P2     : 0.5000  P5     : 976.00                              
 G2     : 956.00  G3     :  7.500  PHINT  : 45.600                              


*SIMULATED CROP AND SOIL STATUS AT MAIN DEVELOPMENT STAGES

 RUN NO.     8     P05/07                  

        CROP GROWTH     BIOMASS         LEAF   CROP N     STRESS      STRESS                                           
   DATE  AGE STAGE        kg/ha    LAI   NUM  kg/ha  %   H2O  Nitr Phos1 Phos2  RSTG                                   
 ------  --- ----------   -----  -----  ----  ---  ---  ----  ----  ----  ----  ----                                   
  7 APR    0 Start Sim        0   0.00   0.0    0  0.0  0.00  0.00  0.00  0.00     7
  7 MAY    0 Sowing           0   0.00   0.0    0  0.0  0.00  0.00  0.00  0.00     8
  8 MAY    1 Germinate        0   0.00   0.0    0  0.0  0.00  0.00  0.00  0.00     9
 13 MAY    6 Emergence       25   0.00   2.1    1  4.4  0.00  0.01  0.00  0.00     1
 27 MAY   20 End Juveni      79   0.17   7.8    3  3.3  0.00  0.00  0.00  0.00     2
  4 JUN   28 Floral Ini     356   0.63  10.8   13  3.6  0.00  0.00  0.00  0.00     3
 12 JUL   66 75% Silkin    5151   2.35  22.6  108  2.1  0.32  0.01  0.00  0.00     4
 22 JUL   76 Beg Gr Fil    5138   1.52  22.6  108  2.1  0.90  0.00  0.00  0.00     5
  2 SEP  118 End Gr Fil    6354   0.34  22.6  108  1.7  0.75  0.00  0.00  0.00     6
  5 SEP  121 Maturity      6354   0.34  22.6  108  1.7  0.95  0.00  0.00  0.00    10
[...]
 NITROGEN BAL.  : SOIL-N & N-UPTAKE SIMULATION; NO N-FIXATION                   
 N-FERTILIZER   :      161 kg/ha IN     5 APPLICATIONS                          
 RESIDUE/MANURE : INITIAL :     0 kg/ha ;       0 kg/ha IN     0 APPLICATIONS   
 ENVIRONM. OPT. : DAYL=    0.00  SRAD=    0.00  TMAX=    0.00  TMIN=    0.00    
                  RAIN=    0.00  CO2 =    0.00  DEW =    0.00  WIND=    0.00    
 SIMULATION OPT : WATER   :Y  NITROGEN:Y  N-FIX:N  PHOSPH :N  PESTS  :N         
                  PHOTO   :C  ET      :R  INFIL:S  HYDROL :R  SOM    :G         
                  CO2 341ppm  NSWIT   :1  EVAP :S  SOIL   :2  STEMP  :D         
 MANAGEMENT OPT : PLANTING:R  IRRIG   :N  FERT :D  RESIDUE:R  HARVEST:M         
                  WEATHER :M  TILLAGE :N                                        
                                                                                
*SUMMARY OF SOIL AND GENETIC INPUT PARAMETERS                                   
                                                                                
   SOIL LOWER UPPER   SAT  EXTR  INIT   ROOT   BULK     pH    NO3    NH4    ORG 
  DEPTH LIMIT LIMIT    SW    SW    SW   DIST   DENS                          C  
   cm   cm3/cm3    cm3/cm3    cm3/cm3         g/cm3         ugN/g  ugN/g     %  
------------------------------------------------------------------------------- 
  0-  5 0.215 0.331 0.341 0.116 0.331   1.00   1.68   6.70   0.00   0.00   0.75 
  5- 15 0.215 0.331 0.341 0.116 0.331   1.00   1.68   6.70   0.00   0.00   0.75 
 15- 25 0.215 0.331 0.341 0.116 0.331   1.00   1.68   6.70   0.00   0.00   0.75 
 25- 35 0.181 0.291 0.364 0.110 0.291   0.50   1.61   7.20   0.00   0.00   0.53 
 35- 45 0.181 0.291 0.364 0.110 0.291   0.50   1.61   7.20   0.00   0.00   0.53 
 45- 67 0.096 0.169 0.404 0.073 0.169   0.27   1.51   7.00   0.00   0.00   0.05 
 67- 90 0.096 0.169 0.404 0.073 0.169   0.27   1.51   7.00   0.00   0.00   0.05 
                                                                                
TOT- 90  13.3  21.7  34.0   8.4  21.7  <--cm   -  kg/ha-->    0.0    0.0  51964 
SOIL ALBEDO    : 0.09      EVAPORATION LIMIT : 6.00         MIN. FACTOR  : 1.00 
RUNOFF CURVE # :76.00      DRAINAGE RATE     : 0.60         FERT. FACTOR : 1.00 
                                                                                
 Maize      CULTIVAR :CI0003-FNC3056            ECOTYPE :IB0001                 
 P1     : 233.00  P2     : 0.5000  P5     : 976.00                              
 G2     : 956.00  G3     :  7.500  PHINT  : 45.600                              


*SIMULATED CROP AND SOIL STATUS AT MAIN DEVELOPMENT STAGES

 RUN NO.    35     P12/14                  

        CROP GROWTH     BIOMASS         LEAF   CROP N     STRESS      STRESS                                           
   DATE  AGE STAGE        kg/ha    LAI   NUM  kg/ha  %   H2O  Nitr Phos1 Phos2  RSTG                                   
 ------  --- ----------   -----  -----  ----  ---  ---  ----  ----  ----  ----  ----                                   
 14 NOV    0 Start Sim        0   0.00   0.0    0  0.0  0.00  0.00  0.00  0.00     7
 14 DEC    0 Sowing           0   0.00   0.0    0  0.0  0.00  0.00  0.00  0.00     8
 15 DEC    1 Germinate        0   0.00   0.0    0  0.0  0.00  0.00  0.00  0.00     9
 20 DEC    6 Emergence       25   0.00   2.1    1  4.4  0.00  0.01  0.00  0.00     1
  2 JAN   19 End Juveni      97   0.21   7.6    3  3.3  0.00  0.00  0.00  0.00     2
  6 JAN   23 Floral Ini     212   0.41   9.2    8  3.6  0.00  0.00  0.00  0.00     3
  5 FEB   53 75% Silkin    1945   0.77  19.4   14  0.7  0.39  0.61  0.00  0.00     4
 14 FEB   62 Beg Gr Fil    2112   0.56  19.4   41  2.0  0.78  0.18  0.00  0.00     5
 25 MAR  101 End Gr Fil    2590   0.13  19.4   41  1.6  0.81  0.00  0.00  0.00     6
 28 MAR  104 Maturity      2590   0.13  19.4   41  1.6  0.00  0.00  0.00  0.00    10
 28 MAR  104 Harvest       2590   0.13  19.4   41  1.6  0.00  0.00  0.00  0.00    10


*MAIN GROWTH AND DEVELOPMENT VARIABLES

@     VARIABLE                                         SIMULATED     MEASURED
      --------                                         ---------     --------
      Anthesis day (dap)                                      53          -99
      Physiological maturity day (dap)                       104          -99
      Yield at harvest maturity (kg [dm]/ha)                 811          -99
      Number at maturity (no/m2)                             630          -99
      Unit wt at maturity (g [dm]/unit)                   0.1287          -99
      Number at maturity (no/unit)                         110.7          -99
      Tops weight at maturity (kg [dm]/ha)                  2590          -99
      By-product produced (stalk) at maturity (kg[dm]/ha    1807          -99
      Leaf area index, maximum                              1.13          -99
      Harvest index at maturity                            0.313          -99
      Grain N at maturity (kg/ha)                             15          -99
      Tops N at maturity (kg/ha)                              41          -99
      Stem N at maturity (kg/ha)                              25          -99
      Grain N at maturity (%)                                1.9          -99
      Tops weight at anthesis (kg [dm]/ha)                  1929          -99
      Tops N at anthesis (kg/ha)                              14          -99
      Leaf number per stem at maturity                     19.38          -99
      Emergence day (dap)                                      6          -99


*ENVIRONMENTAL AND STRESS FACTORS

 |-----Development Phase------|--------------------------------------Environment--------------------------------------|-----------------Stress-----------------|
                              |---------------Average--------------|-----Cumulative-----|--------Count of days--------|          (0=Min, 1=Max Stress)         |
                         Time  Temp  Temp  Temp Solar Photop                Evapo    Pot TMIN TMIN TMAX TMAX TMAX RAIN|----Water----|---Nitrogen--|-Phosphorus-|
                         Span   Max   Min  Mean   Rad  [day]    CO2   Rain  Trans     ET   <    <    >    >    >    >   Photo         Photo         Photo
                         days    邂    邂    邂 MJ/m2     hr    ppm     mm     mm     mm  0邂  2邂 30邂 32邂 34邂  0mm  synth Growth  synth Growth  synth Growth
----------------------------------------------------------------------------------------------------------------------------------------------------------------
 Emergence-End Juvenile    13  30.6  18.6  24.6  17.3   0.00  341.6    2.9   14.0   62.1    0    0    9    3    0    3  0.000  0.000  0.002  0.005  0.000  0.000
 End Juvenil-Floral Init    4  31.3  19.9  25.6  11.7   0.00  341.6    1.2    4.2   12.7    0    0    4    1    0    1  0.000  0.000  0.001  0.001  0.000  0.000
 Floral Init-End Lf Grow   30  33.8  20.4  27.1  17.3   0.00  341.7    4.2   56.6  138.5    0    0   29   25   17    5  0.253  0.367  0.379  0.587  0.000  0.000
 End Lf Grth-Beg Grn Fil    9  32.8  20.5  26.7  16.9   0.00  341.8   15.0   13.3   41.0    0    0    9    6    0    1  0.647  0.765  0.195  0.274  0.000  0.000
 Grain Filling Phase       39  33.9  21.1  27.5  16.2   5.17  342.0   39.1   32.9  179.6    0    0   37   34   22    8  0.753  0.836  0.000  0.000  0.000  0.000


 Planting to Harvest      104  32.9  20.3  26.6  16.6   2.32  341.8  117.5  140.3  475.4    0    0   92   69   39   21  0.411  0.485  0.127  0.194  0.000  0.000
----------------------------------------------------------------------------------------------------------------------------------------------------------------


*Resource Productivity
 Growing season length: 104 days 

 Precipitation during growing season       117.5 mm[rain]
   Dry Matter Productivity                  2.20 kg[DM]/m3[rain]          =   22.0 kg[DM]/ha per mm[rain]
   Yield Productivity                       0.69 kg[grain yield]/m3[rain] =    6.9 kg[yield]/ha per mm[rain]

 Evapotranspiration during growing season  140.3 mm[ET]
   Dry Matter Productivity                  1.85 kg[DM]/m3[ET]            =   18.5 kg[DM]/ha per mm[ET]
   Yield Productivity                       0.58 kg[grain yield]/m3[ET]   =    5.8 kg[yield]/ha per mm[ET]

 Transpiration during growing season        64.3 mm[EP]
   Dry Matter Productivity                  4.03 kg[DM]/m3[EP]            =   40.3 kg[DM]/ha per mm[EP]
   Yield Productivity                       1.26 kg[grain yield]/m3[EP]   =   12.6 kg[yield]/ha per mm[EP]

 N applied during growing season            161. kg[N applied]/ha
   Dry Matter Productivity                  16.1 kg[DM]/kg[N applied]
   Yield Productivity                        5.0 kg[yield]/kg[N applied]

 N uptake during growing season               45 kg[N uptake]/ha
   Dry Matter Productivity                  57.6 kg[DM]/kg[N uptake]
   Yield Productivity                       18.0 kg[yield]/kg[N uptake]

--------------------------------------------------------------------------------------------------------------

                     Maize YIELD :      811 kg/ha    [Dry weight] 

**************************************************************************************************************

*DSSAT Cropping System Model Ver. 4.6.1.000 -release      OCT 24, 2017; 10:35:37
                                                                                
*RUN  36        : P12/19                    MZCER046 ANBU1982   36              
 MODEL          : MZCER046 - Maize                                              
 EXPERIMENT     : ANBU1982 MZ  Analisis a침os de bajo rendimiento Buga          
 DATA PATH      : C:\DSSAT46\maize\                                             
 TREATMENT 36   : P12/19                    MZCER046                            
                                                                                
                                                                                
 CROP           : Maize            CULTIVAR : FNC3056          ECOTYPE :IB0001  
 STARTING DATE  : NOV 19 1982                                                   
 PLANTING DATE  : DEC 19 1982        PLANTS/m2 :  6.2     ROW SPACING :  80.cm  
 WEATHER        : CUNI   1982                                                   
 SOIL           : CCBUGA2017     TEXTURE : CL    -   Suelo Buga MADR Fase I     
 SOIL INITIAL C : DEPTH: 90cm EXTR. H2O: 83.9mm  NO3:  0.0kg/ha  NH4:  0.0kg/ha 
 WATER BALANCE  : RAINFED                                                       
 IRRIGATION     : NOT IRRIGATED                                                 
 NITROGEN BAL.  : SOIL-N & N-UPTAKE SIMULATION; NO N-FIXATION                   
 N-FERTILIZER   :      161 kg/ha IN     5 APPLICATIONS                          
 RESIDUE/MANURE : INITIAL :     0 kg/ha ;       0 kg/ha IN     0 APPLICATIONS   
 ENVIRONM. OPT. : DAYL=    0.00  SRAD=    0.00  TMAX=    0.00  TMIN=    0.00    
                  RAIN=    0.00  CO2 =    0.00  DEW =    0.00  WIND=    0.00    
 SIMULATION OPT : WATER   :Y  NITROGEN:Y  N-FIX:N  PHOSPH :N  PESTS  :N         
                  PHOTO   :C  ET      :R  INFIL:S  HYDROL :R  SOM    :G         
                  CO2 341ppm  NSWIT   :1  EVAP :S  SOIL   :2  STEMP  :D         
 MANAGEMENT OPT : PLANTING:R  IRRIG   :N  FERT :D  RESIDUE:R  HARVEST:M         
                  WEATHER :M  TILLAGE :N                                        
                                                                                
*SUMMARY OF SOIL AND GENETIC INPUT PARAMETERS                                   
                                                                                
   SOIL LOWER UPPER   SAT  EXTR  INIT   ROOT   BULK     pH    NO3    NH4    ORG 
  DEPTH LIMIT LIMIT    SW    SW    SW   DIST   DENS                          C  
   cm   cm3/cm3    cm3/cm3    cm3/cm3         g/cm3         ugN/g  ugN/g     %  
------------------------------------------------------------------------------- 
  0-  5 0.215 0.331 0.341 0.116 0.331   1.00   1.68   6.70   0.00   0.00   0.75 
  5- 15 0.215 0.331 0.341 0.116 0.331   1.00   1.68   6.70   0.00   0.00   0.75 
 15- 25 0.215 0.331 0.341 0.116 0.331   1.00   1.68   6.70   0.00   0.00   0.75 
 25- 35 0.181 0.291 0.364 0.110 0.291   0.50   1.61   7.20   0.00   0.00   0.53 
 35- 45 0.181 0.291 0.364 0.110 0.291   0.50   1.61   7.20   0.00   0.00   0.53 
 45- 67 0.096 0.169 0.404 0.073 0.169   0.27   1.51   7.00   0.00   0.00   0.05 
 67- 90 0.096 0.169 0.404 0.073 0.169   0.27   1.51   7.00   0.00   0.00   0.05 
                                                                                
TOT- 90  13.3  21.7  34.0   8.4  21.7  <--cm   -  kg/ha-->    0.0    0.0  51964 
SOIL ALBEDO    : 0.09      EVAPORATION LIMIT : 6.00         MIN. FACTOR  : 1.00 
RUNOFF CURVE # :76.00      DRAINAGE RATE     : 0.60         FERT. FACTOR : 1.00 
                                                                                
 Maize      CULTIVAR :CI0003-FNC3056            ECOTYPE :IB0001                 
 P1     : 233.00  P2     : 0.5000  P5     : 976.00                              
 G2     : 956.00  G3     :  7.500  PHINT  : 45.600                              


*SIMULATED CROP AND SOIL STATUS AT MAIN DEVELOPMENT STAGES

 RUN NO.    36     P12/19                  

        CROP GROWTH     BIOMASS         LEAF   CROP N     STRESS      STRESS                                           
   DATE  AGE STAGE        kg/ha    LAI   NUM  kg/ha  %   H2O  Nitr Phos1 Phos2  RSTG                                   
 ------  --- ----------   -----  -----  ----  ---  ---  ----  ----  ----  ----  ----                                   
 19 NOV    0 Start Sim        0   0.00   0.0    0  0.0  0.00  0.00  0.00  0.00     7
 19 DEC    0 Sowing           0   0.00   0.0    0  0.0  0.00  0.00  0.00  0.00     8
 20 DEC    1 Germinate        0   0.00   0.0    0  0.0  0.00  0.00  0.00  0.00     9
 25 DEC    6 Emergence       25   0.00   2.1    1  4.4  0.00  0.01  0.00  0.00     1
  7 JAN   19 End Juveni     117   0.25   7.7    4  3.3  0.00  0.00  0.00  0.00     2
 11 JAN   23 Floral Ini     285   0.53   9.4    8  3.0  0.00  0.00  0.00  0.00     3
 10 FEB   53 75% Silkin    1898   0.78  20.0   43  2.3  0.44  0.57  0.00  0.00     4
 19 FEB   62 Beg Gr Fil    1969   0.55  20.0   43  2.2  0.86  0.00  0.00  0.00     5
 31 MAR  102 End Gr Fil    2561   0.15  20.0   43  1.7  0.70  0.00  0.00  0.00     6
  2 APR  104 Maturity      2561   0.15  20.0   43  1.7  0.00  0.00  0.00  0.00    10
  2 APR  104 Harvest       2561   0.15  20.0   43  1.7  0.00  0.00  0.00  0.00    10


*MAIN GROWTH AND DEVELOPMENT VARIABLES

@     VARIABLE                                         SIMULATED     MEASURED
      --------                                         ---------     --------
      Anthesis day (dap)                                      53          -99
      Physiological maturity day (dap)                       104          -99
      Yield at harvest maturity (kg [dm]/ha)                 819          -99
      Number at maturity (no/m2)                             522          -99
      Unit wt at maturity (g [dm]/unit)                   0.1569          -99
      Number at maturity (no/unit)                          96.1          -99
      Tops weight at maturity (kg [dm]/ha)                  2561          -99
      By-product produced (stalk) at maturity (kg[dm]/ha    1770          -99
      Leaf area index, maximum                              1.08          -99
      Harvest index at maturity                            0.320          -99
      Grain N at maturity (kg/ha)                             15          -99
      Tops N at maturity (kg/ha)                              43          -99
      Stem N at maturity (kg/ha)                              26          -99
      Grain N at maturity (%)                                1.8          -99
      Tops weight at anthesis (kg [dm]/ha)                  1867          -99
      Tops N at anthesis (kg/ha)                              42          -99
      Leaf number per stem at maturity                     20.00          -99
      Emergence day (dap)                                      6          -99


*ENVIRONMENTAL AND STRESS FACTORS

 |-----Development Phase------|--------------------------------------Environment--------------------------------------|-----------------Stress-----------------|
                              |---------------Average--------------|-----Cumulative-----|--------Count of days--------|          (0=Min, 1=Max Stress)         |
                         Time  Temp  Temp  Temp Solar Photop                Evapo    Pot TMIN TMIN TMAX TMAX TMAX RAIN|----Water----|---Nitrogen--|-Phosphorus-|
                         Span   Max   Min  Mean   Rad  [day]    CO2   Rain  Trans     ET   <    <    >    >    >    >   Photo         Photo         Photo
                         days    邂    邂    邂 MJ/m2     hr    ppm     mm     mm     mm  0邂  2邂 30邂 32邂 34邂  0mm  synth Growth  synth Growth  synth Growth
----------------------------------------------------------------------------------------------------------------------------------------------------------------
 Emergence-End Juvenile    13  30.8  18.6  24.7  15.5   0.00  341.6    3.4   11.2   55.4    0    0   10    4    0    2  0.000  0.000  0.002  0.005  0.000  0.000
 End Juvenil-Floral Init    4  33.5  19.9  26.7  18.2   0.00  341.6    0.0    5.6   20.2    0    0    4    3    2    0  0.000  0.000  0.001  0.002  0.000  0.000
 Floral Init-End Lf Grow   30  33.7  20.6  27.1  16.6   0.00  341.7   19.2   55.7  133.5    0    0   29   24   15    6  0.278  0.417  0.367  0.573  0.000  0.000
 End Lf Grth-Beg Grn Fil    9  34.0  20.0  27.0  18.6   0.00  341.9    0.0   11.1   45.4    0    0    9    9    4    0  0.768  0.846  0.000  0.000  0.000  0.000
 Grain Filling Phase       40  33.4  21.2  27.3  16.2   7.11  342.0   88.1   47.2  184.6    0    0   37   30   18   11  0.658  0.722  0.000  0.000  0.000  0.000


 Planting to Harvest      104  33.1  20.4  26.7  16.7   3.03  341.8  111.4  141.0  481.8    0    0   95   72   39   21  0.400  0.471  0.106  0.166  0.000  0.000
----------------------------------------------------------------------------------------------------------------------------------------------------------------


*Resource Productivity
 Growing season length: 104 days 

 Precipitation during growing season       111.4 mm[rain]
   Dry Matter Productivity                  2.30 kg[DM]/m3[rain]          =   23.0 kg[DM]/ha per mm[rain]
   Yield Productivity                       0.74 kg[grain yield]/m3[rain] =    7.4 kg[yield]/ha per mm[rain]

 Evapotranspiration during growing season  141.0 mm[ET]
   Dry Matter Productivity                  1.82 kg[DM]/m3[ET]            =   18.2 kg[DM]/ha per mm[ET]
   Yield Productivity                       0.58 kg[grain yield]/m3[ET]   =    5.8 kg[yield]/ha per mm[ET]

 Transpiration during growing season        63.4 mm[EP]
   Dry Matter Productivity                  4.04 kg[DM]/m3[EP]            =   40.4 kg[DM]/ha per mm[EP]
   Yield Productivity                       1.29 kg[grain yield]/m3[EP]   =   12.9 kg[yield]/ha per mm[EP]

 N applied during growing season            161. kg[N applied]/ha
   Dry Matter Productivity                  15.9 kg[DM]/kg[N applied]
   Yield Productivity                        5.1 kg[yield]/kg[N applied]

 N uptake during growing season               48 kg[N uptake]/ha
   Dry Matter Productivity                  53.4 kg[DM]/kg[N uptake]
   Yield Productivity                       17.1 kg[yield]/kg[N uptake]

--------------------------------------------------------------------------------------------------------------

                     Maize YIELD :      819 kg/ha    [Dry weight] 

**************************************************************************************************************
