*SIMULATION OVERVIEW FILE

*DSSAT Cropping System Model Ver. 4.6.1.000 -release      OCT 02, 2017; 12:42:58
                                                                                
*RUN   1        : P07/14                    MZCER046 ANES2009    1              
 MODEL          : MZCER046 - Maize                                              
 EXPERIMENT     : ANES2009 MZ  MZ Analisis a침os de bajo rendimiento Espinal    
 DATA PATH      : C:\DSSAT46\maize\                                             
 TREATMENT  1   : P07/14                    MZCER046                            
                                                                                
                                                                                
 CROP           : Maize            CULTIVAR : FNC3056          ECOTYPE :IB0001  
 STARTING DATE  : JUN 14 2009                                                   
 PLANTING DATE  : JUL 14 2009        PLANTS/m2 :  6.2     ROW SPACING :  80.cm  
 WEATHER        : CNAT   2009                                                   
 SOIL           : CCESPI2017     TEXTURE : SL    -   Suelo Espinal Calibraci    
 SOIL INITIAL C : DEPTH:100cm EXTR. H2O: 83.6mm  NO3:100.0kg/ha  NH4: 72.3kg/ha 
 WATER BALANCE  : RAINFED                                                       
 IRRIGATION     : NOT IRRIGATED                                                 
 NITROGEN BAL.  : SOIL-N & N-UPTAKE SIMULATION; NO N-FIXATION                   
 N-FERTILIZER   :      162 kg/ha IN     6 APPLICATIONS                          
 RESIDUE/MANURE : INITIAL :     0 kg/ha ;       0 kg/ha IN     0 APPLICATIONS   
 ENVIRONM. OPT. : DAYL=    0.00  SRAD=    0.00  TMAX=    0.00  TMIN=    0.00    
                  RAIN=    0.00  CO2 =    0.00  DEW =    0.00  WIND=    0.00    
 SIMULATION OPT : WATER   :Y  NITROGEN:Y  N-FIX:N  PHOSPH :N  PESTS  :N         
                  PHOTO   :C  ET      :R  INFIL:S  HYDROL :R  SOM    :G         
                  CO2 387ppm  NSWIT   :1  EVAP :S  SOIL   :2  STEMP  :D         
 MANAGEMENT OPT : PLANTING:R  IRRIG   :N  FERT :D  RESIDUE:R  HARVEST:M         
                  WEATHER :M  TILLAGE :N                                        
                                                                                
*SUMMARY OF SOIL AND GENETIC INPUT PARAMETERS                                   
                                                                                
   SOIL LOWER UPPER   SAT  EXTR  INIT   ROOT   BULK     pH    NO3    NH4    ORG 
  DEPTH LIMIT LIMIT    SW    SW    SW   DIST   DENS                          C  
   cm   cm3/cm3    cm3/cm3    cm3/cm3         g/cm3         ugN/g  ugN/g     %  
------------------------------------------------------------------------------- 
  0-  5 0.160 0.252 0.376 0.092 0.252   1.00   1.69   6.60   8.90   4.51   0.45 
  5- 15 0.160 0.252 0.376 0.092 0.252   1.00   1.69   6.60   8.90   4.51   0.45 
 15- 30 0.160 0.252 0.376 0.092 0.252   1.00   1.69   6.60   8.90   4.51   0.45 
 30- 53 0.120 0.200 0.440 0.080 0.200   0.27   1.40   7.10   5.60   5.04   0.17 
 53- 77 0.120 0.200 0.440 0.080 0.200   0.27   1.40   7.10   5.60   5.04   0.17 
 77-100 0.120 0.200 0.440 0.080 0.200   0.27   1.40   7.10   5.60   5.04   0.17 
                                                                                
TOT-100  13.2  21.6  42.1   8.4  21.6  <--cm   -  kg/ha-->  100.0   72.3  39475 
SOIL ALBEDO    : 0.09      EVAPORATION LIMIT : 6.00         MIN. FACTOR  : 1.00 
RUNOFF CURVE # :76.00      DRAINAGE RATE     : 0.60         FERT. FACTOR : 1.00 
                                                                                
 Maize      CULTIVAR :CI0003-FNC3056            ECOTYPE :IB0001                 
 P1     : 233.00  P2     : 0.5000  P5     : 976.00                              
 G2     : 956.00  G3     :  7.500  PHINT  : 45.600                              


*SIMULATED CROP AND SOIL STATUS AT MAIN DEVELOPMENT STAGES

 RUN NO.     1     P07/14                  

        CROP GROWTH     BIOMASS         LEAF   CROP N     STRESS      STRESS                                           
   DATE  AGE STAGE        kg/ha    LAI   NUM  kg/ha  %   H2O  Nitr Phos1 Phos2  RSTG                                   
 ------  --- ----------   -----  -----  ----  ---  ---  ----  ----  ----  ----  ----                                   
 14 JUN    0 Start Sim        0   0.00   0.0    0  0.0  0.00  0.00  0.00  0.00     7
 14 JUL    0 Sowing           0   0.00   0.0    0  0.0  0.00  0.00  0.00  0.00     8
 15 JUL    1 Germinate        0   0.00   0.0    0  0.0  0.00  0.00  0.00  0.00     9
 19 JUL    5 Emergence       25   0.00   2.2    1  4.4  0.00  0.01  0.00  0.00     1
 30 JUL   16 End Juveni     131   0.27   7.8    4  3.4  0.05  0.00  0.00  0.00     2
  7 AUG   24 Floral Ini     516   0.85  11.6   19  3.7  0.22  0.00  0.00  0.00     3
  9 SEP   57 75% Silkin    3954   1.68  23.9   88  2.2  0.56  0.00  0.00  0.00     4
 18 SEP   66 Beg Gr Fil    4580   1.36  23.9   88  1.9  0.50  0.00  0.00  0.00     5
 25 OCT  103 End Gr Fil    6557   0.68  23.9   88  1.3  0.43  0.00  0.00  0.00     6
 27 OCT  105 Maturity      6557   0.68  23.9   88  1.3  0.00  0.00  0.00  0.00    10
 27 OCT  105 Harvest       6557   0.68  23.9   88  1.3  0.00  0.00  0.00  0.00    10


*MAIN GROWTH AND DEVELOPMENT VARIABLES

@     VARIABLE                                         SIMULATED     MEASURED
      --------                                         ---------     --------
      Anthesis day (dap)                                      57          -99
      Physiological maturity day (dap)                       105          -99
      Yield at harvest maturity (kg [dm]/ha)                2190          -99
      Number at maturity (no/m2)                            1268          -99
      Unit wt at maturity (g [dm]/unit)                   0.1727          -99
      Number at maturity (no/unit)                         204.5          -99
      Tops weight at maturity (kg [dm]/ha)                  6557          -99
      By-product produced (stalk) at maturity (kg[dm]/ha    4415          -99
      Leaf area index, maximum                              1.98          -99
      Harvest index at maturity                            0.334          -99
      Grain N at maturity (kg/ha)                             40          -99
      Tops N at maturity (kg/ha)                              88          -99
      Stem N at maturity (kg/ha)                              48          -99
      Grain N at maturity (%)                                1.8          -99
      Tops weight at anthesis (kg [dm]/ha)                  3921          -99
      Tops N at anthesis (kg/ha)                              87          -99
      Leaf number per stem at maturity                     23.94          -99
      Emergence day (dap)                                      5          -99


*ENVIRONMENTAL AND STRESS FACTORS

 |-----Development Phase------|--------------------------------------Environment--------------------------------------|-----------------Stress-----------------|
                              |---------------Average--------------|-----Cumulative-----|--------Count of days--------|          (0=Min, 1=Max Stress)         |
                         Time  Temp  Temp  Temp Solar Photop                Evapo    Pot TMIN TMIN TMAX TMAX TMAX RAIN|----Water----|---Nitrogen--|-Phosphorus-|
                         Span   Max   Min  Mean   Rad  [day]    CO2   Rain  Trans     ET   <    <    >    >    >    >   Photo         Photo         Photo
                         days    邂    邂    邂 MJ/m2     hr    ppm     mm     mm     mm  0邂  2邂 30邂 32邂 34邂  0mm  synth Growth  synth Growth  synth Growth
----------------------------------------------------------------------------------------------------------------------------------------------------------------
 Emergence-End Juvenile    11  34.3  21.6  27.9  18.9  24.00  387.5    0.0    4.8   60.2    0    0   11   10    7    0  0.000  0.027  0.002  0.006  0.000  0.000
 End Juvenil-Floral Init    8  35.1  22.2  28.7  20.4  24.00  387.5    0.0   12.1   47.5    0    0    8    7    7    0  0.029  0.203  0.000  0.001  0.000  0.000
 Floral Init-End Lf Grow   33  34.4  22.0  28.2  19.8  22.39  387.6   48.0   84.3  176.7    0    0   32   29   21    7  0.388  0.548  0.000  0.000  0.000  0.000
 End Lf Grth-Beg Grn Fil    9  35.9  22.1  29.0  20.8  14.70  387.7  132.0   23.1   54.0    0    0    9    8    7    4  0.556  0.593  0.000  0.000  0.000  0.000
 Grain Filling Phase       37  35.0  22.4  28.7  20.5   5.80  387.9   35.8  106.1  213.8    0    0   36   33   25    7  0.364  0.432  0.000  0.000  0.000  0.000


 Planting to Harvest      105  34.7  22.0  28.4  20.2  15.83  387.7  215.8  240.1  593.4    0    0  103   93   71   18  0.300  0.394  0.000  0.001  0.000  0.000
----------------------------------------------------------------------------------------------------------------------------------------------------------------


*Resource Productivity
 Growing season length: 105 days 

 Precipitation during growing season       215.8 mm[rain]
   Dry Matter Productivity                  3.04 kg[DM]/m3[rain]          =   30.4 kg[DM]/ha per mm[rain]
   Yield Productivity                       1.01 kg[grain yield]/m3[rain] =   10.1 kg[yield]/ha per mm[rain]

 Evapotranspiration during growing season  240.1 mm[ET]
   Dry Matter Productivity                  2.73 kg[DM]/m3[ET]            =   27.3 kg[DM]/ha per mm[ET]
   Yield Productivity                       0.91 kg[grain yield]/m3[ET]   =    9.1 kg[yield]/ha per mm[ET]

 Transpiration during growing season       175.4 mm[EP]
   Dry Matter Productivity                  3.74 kg[DM]/m3[EP]            =   37.4 kg[DM]/ha per mm[EP]
   Yield Productivity                       1.25 kg[grain yield]/m3[EP]   =   12.5 kg[yield]/ha per mm[EP]

 N applied during growing season            162. kg[N applied]/ha
   Dry Matter Productivity                  40.5 kg[DM]/kg[N applied]
   Yield Productivity                       13.5 kg[yield]/kg[N applied]

 N uptake during growing season               97 kg[N uptake]/ha
   Dry Matter Productivity                  67.6 kg[DM]/kg[N uptake]
   Yield Productivity                       22.6 kg[yield]/kg[N uptake]

--------------------------------------------------------------------------------------------------------------

                     Maize YIELD :     2190 kg/ha    [Dry weight] 

**************************************************************************************************************

*DSSAT Cropping System Model Ver. 4.6.1.000 -release      OCT 02, 2017; 12:42:59
                                                                                
*RUN   2        : P07/19                    MZCER046 ANES2009    2              
 MODEL          : MZCER046 - Maize                                              
 EXPERIMENT     : ANES2009 MZ  MZ Analisis a침os de bajo rendimiento Espinal    
 DATA PATH      : C:\DSSAT46\maize\                                             
 TREATMENT  2   : P07/19                    MZCER046                            
                                                                                
                                                                                
 CROP           : Maize            CULTIVAR : FNC3056          ECOTYPE :IB0001  
 STARTING DATE  : JUN 19 2009                                                   
 PLANTING DATE  : JUL 19 2009        PLANTS/m2 :  6.2     ROW SPACING :  80.cm  
 WEATHER        : CNAT   2009                                                   
 SOIL           : CCESPI2017     TEXTURE : SL    -   Suelo Espinal Calibraci    
 SOIL INITIAL C : DEPTH:100cm EXTR. H2O: 83.6mm  NO3:100.0kg/ha  NH4: 72.3kg/ha 
 WATER BALANCE  : RAINFED                                                       
 IRRIGATION     : NOT IRRIGATED                                                 
 NITROGEN BAL.  : SOIL-N & N-UPTAKE SIMULATION; NO N-FIXATION                   
 N-FERTILIZER   :      162 kg/ha IN     6 APPLICATIONS                          
 RESIDUE/MANURE : INITIAL :     0 kg/ha ;       0 kg/ha IN     0 APPLICATIONS   
 ENVIRONM. OPT. : DAYL=    0.00  SRAD=    0.00  TMAX=    0.00  TMIN=    0.00    
                  RAIN=    0.00  CO2 =    0.00  DEW =    0.00  WIND=    0.00    
 SIMULATION OPT : WATER   :Y  NITROGEN:Y  N-FIX:N  PHOSPH :N  PESTS  :N         
                  PHOTO   :C  ET      :R  INFIL:S  HYDROL :R  SOM    :G         
                  CO2 387ppm  NSWIT   :1  EVAP :S  SOIL   :2  STEMP  :D         
 MANAGEMENT OPT : PLANTING:R  IRRIG   :N  FERT :D  RESIDUE:R  HARVEST:M         
                  WEATHER :M  TILLAGE :N                                        
                                                                                
*SUMMARY OF SOIL AND GENETIC INPUT PARAMETERS                                   
                                                                                
   SOIL LOWER UPPER   SAT  EXTR  INIT   ROOT   BULK     pH    NO3    NH4    ORG 
  DEPTH LIMIT LIMIT    SW    SW    SW   DIST   DENS                          C  
   cm   cm3/cm3    cm3/cm3    cm3/cm3         g/cm3         ugN/g  ugN/g     %  
------------------------------------------------------------------------------- 
  0-  5 0.160 0.252 0.376 0.092 0.252   1.00   1.69   6.60   8.90   4.51   0.45 
  5- 15 0.160 0.252 0.376 0.092 0.252   1.00   1.69   6.60   8.90   4.51   0.45 
 15- 30 0.160 0.252 0.376 0.092 0.252   1.00   1.69   6.60   8.90   4.51   0.45 
 30- 53 0.120 0.200 0.440 0.080 0.200   0.27   1.40   7.10   5.60   5.04   0.17 
 53- 77 0.120 0.200 0.440 0.080 0.200   0.27   1.40   7.10   5.60   5.04   0.17 
 77-100 0.120 0.200 0.440 0.080 0.200   0.27   1.40   7.10   5.60   5.04   0.17 
                                                                                
TOT-100  13.2  21.6  42.1   8.4  21.6  <--cm   -  kg/ha-->  100.0   72.3  39475 
SOIL ALBEDO    : 0.09      EVAPORATION LIMIT : 6.00         MIN. FACTOR  : 1.00 
RUNOFF CURVE # :76.00      DRAINAGE RATE     : 0.60         FERT. FACTOR : 1.00 
                                                                                
 Maize      CULTIVAR :CI0003-FNC3056            ECOTYPE :IB0001                 
 P1     : 233.00  P2     : 0.5000  P5     : 976.00                              
 G2     : 956.00  G3     :  7.500  PHINT  : 45.600                              


*SIMULATED CROP AND SOIL STATUS AT MAIN DEVELOPMENT STAGES

 RUN NO.     2     P07/19                  

        CROP GROWTH     BIOMASS         LEAF   CROP N     STRESS      STRESS                                           
   DATE  AGE STAGE        kg/ha    LAI   NUM  kg/ha  %   H2O  Nitr Phos1 Phos2  RSTG                                   
 ------  --- ----------   -----  -----  ----  ---  ---  ----  ----  ----  ----  ----                                   
 19 JUN    0 Start Sim        0   0.00   0.0    0  0.0  0.00  0.00  0.00  0.00     7
 19 JUL    0 Sowing           0   0.00   0.0    0  0.0  0.00  0.00  0.00  0.00     8
 20 JUL    1 Germinate        0   0.00   0.0    0  0.0  0.00  0.00  0.00  0.00     9
 24 JUL    5 Emergence       25   0.00   2.2    1  4.4  0.00  0.01  0.00  0.00     1
  4 AUG   16 End Juveni     143   0.30   8.0    5  3.2  0.06  0.00  0.00  0.00     2
 12 AUG   24 Floral Ini     472   0.78  11.6   18  3.8  0.29  0.00  0.00  0.00     3
 14 SEP   57 75% Silkin    3919   1.67  24.0   93  2.4  0.55  0.00  0.00  0.00     4
 23 SEP   66 Beg Gr Fil    5762   1.67  24.0   93  1.6  0.00  0.00  0.00  0.00     5
 30 OCT  103 End Gr Fil    8870   0.72  24.0  104  1.2  0.53  0.00  0.00  0.00     6
  1 NOV  105 Maturity      8870   0.72  24.0  104  1.2  0.86  0.00  0.00  0.00    10
  1 NOV  105 Harvest       8870   0.72  24.0  104  1.2  0.00  0.00  0.00  0.00    10


*MAIN GROWTH AND DEVELOPMENT VARIABLES

@     VARIABLE                                         SIMULATED     MEASURED
      --------                                         ---------     --------
      Anthesis day (dap)                                      57          -99
      Physiological maturity day (dap)                       105          -99
      Yield at harvest maturity (kg [dm]/ha)                3880          -99
      Number at maturity (no/m2)                            2512          -99
      Unit wt at maturity (g [dm]/unit)                   0.1545          -99
      Number at maturity (no/unit)                         405.1          -99
      Tops weight at maturity (kg [dm]/ha)                  8870          -99
      By-product produced (stalk) at maturity (kg[dm]/ha    5041          -99
      Leaf area index, maximum                              2.21          -99
      Harvest index at maturity                            0.437          -99
      Grain N at maturity (kg/ha)                             71          -99
      Tops N at maturity (kg/ha)                             104          -99
      Stem N at maturity (kg/ha)                              33          -99
      Grain N at maturity (%)                                1.8          -99
      Tops weight at anthesis (kg [dm]/ha)                  3912          -99
      Tops N at anthesis (kg/ha)                              93          -99
      Leaf number per stem at maturity                     24.02          -99
      Emergence day (dap)                                      5          -99


*ENVIRONMENTAL AND STRESS FACTORS

 |-----Development Phase------|--------------------------------------Environment--------------------------------------|-----------------Stress-----------------|
                              |---------------Average--------------|-----Cumulative-----|--------Count of days--------|          (0=Min, 1=Max Stress)         |
                         Time  Temp  Temp  Temp Solar Photop                Evapo    Pot TMIN TMIN TMAX TMAX TMAX RAIN|----Water----|---Nitrogen--|-Phosphorus-|
                         Span   Max   Min  Mean   Rad  [day]    CO2   Rain  Trans     ET   <    <    >    >    >    >   Photo         Photo         Photo
                         days    邂    邂    邂 MJ/m2     hr    ppm     mm     mm     mm  0邂  2邂 30邂 32邂 34邂  0mm  synth Growth  synth Growth  synth Growth
----------------------------------------------------------------------------------------------------------------------------------------------------------------
 Emergence-End Juvenile    11  35.3  21.6  28.5  20.6  24.00  387.5    0.0    5.2   67.1    0    0   11   11   11    0  0.000  0.052  0.002  0.005  0.000  0.000
 End Juvenil-Floral Init    8  34.2  22.2  28.2  17.0  24.00  387.5    0.0   10.2   38.3    0    0    8    6    6    0  0.073  0.228  0.001  0.002  0.000  0.000
 Floral Init-End Lf Grow   33  34.8  22.2  28.5  20.4  21.10  387.6   50.5   91.8  183.6    0    0   32   30   22    8  0.375  0.538  0.000  0.000  0.000  0.000
 End Lf Grth-Beg Grn Fil    9  34.5  21.8  28.2  20.4  12.94  387.8  134.1   40.4   49.6    0    0    9    8    4    4  0.101  0.104  0.000  0.000  0.000  0.000
 Grain Filling Phase       37  35.0  22.3  28.7  20.6   4.14  388.0   33.4   95.8  213.8    0    0   36   32   27    7  0.448  0.517  0.000  0.000  0.000  0.000


 Planting to Harvest      105  34.7  22.1  28.4  20.1  14.68  387.7  218.6  247.3  589.0    0    0  103   92   71   20  0.301  0.397  0.000  0.001  0.000  0.000
----------------------------------------------------------------------------------------------------------------------------------------------------------------


*Resource Productivity
 Growing season length: 105 days 

 Precipitation during growing season       218.6 mm[rain]
   Dry Matter Productivity                  4.06 kg[DM]/m3[rain]          =   40.6 kg[DM]/ha per mm[rain]
   Yield Productivity                       1.77 kg[grain yield]/m3[rain] =   17.7 kg[yield]/ha per mm[rain]

 Evapotranspiration during growing season  247.3 mm[ET]
   Dry Matter Productivity                  3.59 kg[DM]/m3[ET]            =   35.9 kg[DM]/ha per mm[ET]
   Yield Productivity                       1.57 kg[grain yield]/m3[ET]   =   15.7 kg[yield]/ha per mm[ET]

 Transpiration during growing season       182.9 mm[EP]
   Dry Matter Productivity                  4.85 kg[DM]/m3[EP]            =   48.5 kg[DM]/ha per mm[EP]
   Yield Productivity                       2.12 kg[grain yield]/m3[EP]   =   21.2 kg[yield]/ha per mm[EP]

 N applied during growing season            162. kg[N applied]/ha
   Dry Matter Productivity                  54.8 kg[DM]/kg[N applied]
   Yield Productivity                       24.0 kg[yield]/kg[N applied]

 N uptake during growing season              119 kg[N uptake]/ha
   Dry Matter Productivity                  74.5 kg[DM]/kg[N uptake]
   Yield Productivity                       32.6 kg[yield]/kg[N uptake]

--------------------------------------------------------------------------------------------------------------

                     Maize YIELD :     3880 kg/ha    [Dry weight] 

**************************************************************************************************************

*DSSAT Cropping System Model Ver. 4.6.1.000 -release      OCT 02, 2017; 12:42:59
                                                                                
*RUN   3        : P07/24                    MZCER046 ANES2009    3              
 MODEL          : MZCER046 - Maize                                              
 EXPERIMENT     : ANES2009 MZ  MZ Analisis a침os de bajo rendimiento Espinal    
 DATA PATH      : C:\DSSAT46\maize\                                             
 TREATMENT  3   : P07/24                    MZCER046                            
                                                                                
                                                                                
 CROP           : Maize            CULTIVAR : FNC3056          ECOTYPE :IB0001  
 STARTING DATE  : JUN 24 2009                                                   
 PLANTING DATE  : JUL 24 2009        PLANTS/m2 :  6.2     ROW SPACING :  80.cm  
 WEATHER        : CNAT   2009                                                   
 SOIL           : CCESPI2017     TEXTURE : SL    -   Suelo Espinal Calibraci    
 SOIL INITIAL C : DEPTH:100cm EXTR. H2O: 83.6mm  NO3:100.0kg/ha  NH4: 72.3kg/ha 
 WATER BALANCE  : RAINFED                                                       
 IRRIGATION     : NOT IRRIGATED                                                 
 NITROGEN BAL.  : SOIL-N & N-UPTAKE SIMULATION; NO N-FIXATION                   
 N-FERTILIZER   :      162 kg/ha IN     6 APPLICATIONS                          
 RESIDUE/MANURE : INITIAL :     0 kg/ha ;       0 kg/ha IN     0 APPLICATIONS   
 ENVIRONM. OPT. : DAYL=    0.00  SRAD=    0.00  TMAX=    0.00  TMIN=    0.00    
                  RAIN=    0.00  CO2 =    0.00  DEW =    0.00  WIND=    0.00    
 SIMULATION OPT : WATER   :Y  NITROGEN:Y  N-FIX:N  PHOSPH :N  PESTS  :N         
                  PHOTO   :C  ET      :R  INFIL:S  HYDROL :R  SOM    :G         
                  CO2 387ppm  NSWIT   :1  EVAP :S  SOIL   :2  STEMP  :D         
 MANAGEMENT OPT : PLANTING:R  IRRIG   :N  FERT :D  RESIDUE:R  HARVEST:M         
                  WEATHER :M  TILLAGE :N                                        
                                                                                
*SUMMARY OF SOIL AND GENETIC INPUT PARAMETERS                                   
                                                                                
   SOIL LOWER UPPER   SAT  EXTR  INIT   ROOT   BULK     pH    NO3    NH4    ORG 
  DEPTH LIMIT LIMIT    SW    SW    SW   DIST   DENS                          C  
   cm   cm3/cm3    cm3/cm3    cm3/cm3         g/cm3         ugN/g  ugN/g     %  
------------------------------------------------------------------------------- 
  0-  5 0.160 0.252 0.376 0.092 0.252   1.00   1.69   6.60   8.90   4.51   0.45 
  5- 15 0.160 0.252 0.376 0.092 0.252   1.00   1.69   6.60   8.90   4.51   0.45 
 15- 30 0.160 0.252 0.376 0.092 0.252   1.00   1.69   6.60   8.90   4.51   0.45 
 30- 53 0.120 0.200 0.440 0.080 0.200   0.27   1.40   7.10   5.60   5.04   0.17 
 53- 77 0.120 0.200 0.440 0.080 0.200   0.27   1.40   7.10   5.60   5.04   0.17 
 77-100 0.120 0.200 0.440 0.080 0.200   0.27   1.40   7.10   5.60   5.04   0.17 
                                                                                
TOT-100  13.2  21.6  42.1   8.4  21.6  <--cm   -  kg/ha-->  100.0   72.3  39475 
SOIL ALBEDO    : 0.09      EVAPORATION LIMIT : 6.00         MIN. FACTOR  : 1.00 
RUNOFF CURVE # :76.00      DRAINAGE RATE     : 0.60         FERT. FACTOR : 1.00 
                                                                                
 Maize      CULTIVAR :CI0003-FNC3056            ECOTYPE :IB0001                 
 P1     : 233.00  P2     : 0.5000  P5     : 976.00                              
 G2     : 956.00  G3     :  7.500  PHINT  : 45.600                              


*SIMULATED CROP AND SOIL STATUS AT MAIN DEVELOPMENT STAGES

 RUN NO.     3     P07/24                  

        CROP GROWTH     BIOMASS         LEAF   CROP N     STRESS      STRESS                                           
   DATE  AGE STAGE        kg/ha    LAI   NUM  kg/ha  %   H2O  Nitr Phos1 Phos2  RSTG                                   
 ------  --- ----------   -----  -----  ----  ---  ---  ----  ----  ----  ----  ----                                   
 24 JUN    0 Start Sim        0   0.00   0.0    0  0.0  0.00  0.00  0.00  0.00     7
 24 JUL    0 Sowing           0   0.00   0.0    0  0.0  0.00  0.00  0.00  0.00     8
 25 JUL    1 Germinate        0   0.00   0.0    0  0.0  0.00  0.00  0.00  0.00     9
 29 JUL    5 Emergence       25   0.00   2.2    1  4.4  0.00  0.01  0.00  0.00     1
  9 AUG   16 End Juveni     155   0.32   7.9    5  3.3  0.01  0.00  0.00  0.00     2
 17 AUG   24 Floral Ini     569   0.92  11.7   21  3.6  0.20  0.00  0.00  0.00     3
 20 SEP   58 75% Silkin    5519   2.46  24.2  108  2.0  0.40  0.00  0.00  0.00     4
 28 SEP   66 Beg Gr Fil    7863   2.46  24.2  109  1.4  0.00  0.00  0.00  0.00     5
  4 NOV  103 End Gr Fil   10525   0.75  24.2  110  1.0  0.72  0.00  0.00  0.00     6
  7 NOV  106 Maturity     10525   0.75  24.2  110  1.0  0.96  0.00  0.00  0.00    10
  7 NOV  106 Harvest      10525   0.75  24.2  110  1.0  0.00  0.00  0.00  0.00    10


*MAIN GROWTH AND DEVELOPMENT VARIABLES

@     VARIABLE                                         SIMULATED     MEASURED
      --------                                         ---------     --------
      Anthesis day (dap)                                      58          -99
      Physiological maturity day (dap)                       106          -99
      Yield at harvest maturity (kg [dm]/ha)                3679          -99
      Number at maturity (no/m2)                            3589          -99
      Unit wt at maturity (g [dm]/unit)                   0.1025          -99
      Number at maturity (no/unit)                         578.9          -99
      Tops weight at maturity (kg [dm]/ha)                 10525          -99
      By-product produced (stalk) at maturity (kg[dm]/ha    6906          -99
      Leaf area index, maximum                              2.66          -99
      Harvest index at maturity                            0.350          -99
      Grain N at maturity (kg/ha)                             68          -99
      Tops N at maturity (kg/ha)                             110          -99
      Stem N at maturity (kg/ha)                              42          -99
      Grain N at maturity (%)                                1.8          -99
      Tops weight at anthesis (kg [dm]/ha)                  5311          -99
      Tops N at anthesis (kg/ha)                             108          -99
      Leaf number per stem at maturity                     24.16          -99
      Emergence day (dap)                                      5          -99


*ENVIRONMENTAL AND STRESS FACTORS

 |-----Development Phase------|--------------------------------------Environment--------------------------------------|-----------------Stress-----------------|
                              |---------------Average--------------|-----Cumulative-----|--------Count of days--------|          (0=Min, 1=Max Stress)         |
                         Time  Temp  Temp  Temp Solar Photop                Evapo    Pot TMIN TMIN TMAX TMAX TMAX RAIN|----Water----|---Nitrogen--|-Phosphorus-|
                         Span   Max   Min  Mean   Rad  [day]    CO2   Rain  Trans     ET   <    <    >    >    >    >   Photo         Photo         Photo
                         days    邂    邂    邂 MJ/m2     hr    ppm     mm     mm     mm  0邂  2邂 30邂 32邂 34邂  0mm  synth Growth  synth Growth  synth Growth
----------------------------------------------------------------------------------------------------------------------------------------------------------------
 Emergence-End Juvenile    11  34.7  22.4  28.5  18.8  24.00  387.5    0.0    4.5   61.4    0    0   11    9    9    0  0.000  0.006  0.002  0.005  0.000  0.000
 End Juvenil-Floral Init    8  35.2  22.1  28.6  20.2  24.00  387.5    9.7   13.4   46.7    0    0    8    8    7    2  0.056  0.210  0.001  0.001  0.000  0.000
 Floral Init-End Lf Grow   34  34.7  22.0  28.4  20.5  19.32  387.7  170.3  117.7  188.4    0    0   33   30   21    9  0.290  0.404  0.000  0.000  0.000  0.000
 End Lf Grth-Beg Grn Fil    8  35.6  22.1  28.8  21.9  11.06  387.9    4.6   44.9   47.5    0    0    8    8    6    1  0.000  0.000  0.000  0.000  0.000  0.000
 Grain Filling Phase       37  34.4  22.3  28.4  19.5   2.72  388.0   37.0   68.2  198.1    0    0   36   29   22   11  0.628  0.701  0.000  0.000  0.000  0.000


 Planting to Harvest      106  34.7  22.1  28.4  19.8  13.41  387.8  222.4  252.3  582.8    0    0  104   92   70   25  0.342  0.417  0.000  0.001  0.000  0.000
----------------------------------------------------------------------------------------------------------------------------------------------------------------


*Resource Productivity
 Growing season length: 106 days 

 Precipitation during growing season       222.4 mm[rain]
   Dry Matter Productivity                  4.73 kg[DM]/m3[rain]          =   47.3 kg[DM]/ha per mm[rain]
   Yield Productivity                       1.65 kg[grain yield]/m3[rain] =   16.5 kg[yield]/ha per mm[rain]

 Evapotranspiration during growing season  252.3 mm[ET]
   Dry Matter Productivity                  4.17 kg[DM]/m3[ET]            =   41.7 kg[DM]/ha per mm[ET]
   Yield Productivity                       1.46 kg[grain yield]/m3[ET]   =   14.6 kg[yield]/ha per mm[ET]

 Transpiration during growing season       187.5 mm[EP]
   Dry Matter Productivity                  5.61 kg[DM]/m3[EP]            =   56.1 kg[DM]/ha per mm[EP]
   Yield Productivity                       1.96 kg[grain yield]/m3[EP]   =   19.6 kg[yield]/ha per mm[EP]

 N applied during growing season            162. kg[N applied]/ha
   Dry Matter Productivity                  65.0 kg[DM]/kg[N applied]
   Yield Productivity                       22.7 kg[yield]/kg[N applied]

 N uptake during growing season              122 kg[N uptake]/ha
   Dry Matter Productivity                  86.3 kg[DM]/kg[N uptake]
   Yield Productivity                       30.2 kg[yield]/kg[N uptake]

--------------------------------------------------------------------------------------------------------------

                     Maize YIELD :     3679 kg/ha    [Dry weight] 

**************************************************************************************************************

*DSSAT Cropping System Model Ver. 4.6.1.000 -release      OCT 02, 2017; 12:42:59
                                                                                
*RUN   4        : P07/29                    MZCER046 ANES2009    4              
 MODEL          : MZCER046 - Maize                                              
 EXPERIMENT     : ANES2009 MZ  MZ Analisis a침os de bajo rendimiento Espinal    
 DATA PATH      : C:\DSSAT46\maize\                                             
 TREATMENT  4   : P07/29                    MZCER046                            
                                                                                
                                                                                
 CROP           : Maize            CULTIVAR : FNC3056          ECOTYPE :IB0001  
 STARTING DATE  : JUN 29 2009                                                   
 PLANTING DATE  : JUL 29 2009        PLANTS/m2 :  6.2     ROW SPACING :  80.cm  
 WEATHER        : CNAT   2009                                                   
 SOIL           : CCESPI2017     TEXTURE : SL    -   Suelo Espinal Calibraci    
 SOIL INITIAL C : DEPTH:100cm EXTR. H2O: 83.6mm  NO3:100.0kg/ha  NH4: 72.3kg/ha 
 WATER BALANCE  : RAINFED                                                       
 IRRIGATION     : NOT IRRIGATED                                                 
 NITROGEN BAL.  : SOIL-N & N-UPTAKE SIMULATION; NO N-FIXATION                   
 N-FERTILIZER   :      162 kg/ha IN     6 APPLICATIONS                          
 RESIDUE/MANURE : INITIAL :     0 kg/ha ;       0 kg/ha IN     0 APPLICATIONS   
 ENVIRONM. OPT. : DAYL=    0.00  SRAD=    0.00  TMAX=    0.00  TMIN=    0.00    
                  RAIN=    0.00  CO2 =    0.00  DEW =    0.00  WIND=    0.00    
 SIMULATION OPT : WATER   :Y  NITROGEN:Y  N-FIX:N  PHOSPH :N  PESTS  :N         
                  PHOTO   :C  ET      :R  INFIL:S  HYDROL :R  SOM    :G         
                  CO2 387ppm  NSWIT   :1  EVAP :S  SOIL   :2  STEMP  :D         
 MANAGEMENT OPT : PLANTING:R  IRRIG   :N  FERT :D  RESIDUE:R  HARVEST:M         
                  WEATHER :M  TILLAGE :N                                        
                                                                                
*SUMMARY OF SOIL AND GENETIC INPUT PARAMETERS                                   
                                                                                
   SOIL LOWER UPPER   SAT  EXTR  INIT   ROOT   BULK     pH    NO3    NH4    ORG 
  DEPTH LIMIT LIMIT    SW    SW    SW   DIST   DENS                          C  
   cm   cm3/cm3    cm3/cm3    cm3/cm3         g/cm3         ugN/g  ugN/g     %  
------------------------------------------------------------------------------- 
  0-  5 0.160 0.252 0.376 0.092 0.252   1.00   1.69   6.60   8.90   4.51   0.45 
  5- 15 0.160 0.252 0.376 0.092 0.252   1.00   1.69   6.60   8.90   4.51   0.45 
 15- 30 0.160 0.252 0.376 0.092 0.252   1.00   1.69   6.60   8.90   4.51   0.45 
 30- 53 0.120 0.200 0.440 0.080 0.200   0.27   1.40   7.10   5.60   5.04   0.17 
 53- 77 0.120 0.200 0.440 0.080 0.200   0.27   1.40   7.10   5.60   5.04   0.17 
 77-100 0.120 0.200 0.440 0.080 0.200   0.27   1.40   7.10   5.60   5.04   0.17 
                                                                                
TOT-100  13.2  21.6  42.1   8.4  21.6  <--cm   -  kg/ha-->  100.0   72.3  39475 
SOIL ALBEDO    : 0.09      EVAPORATION LIMIT : 6.00         MIN. FACTOR  : 1.00 
RUNOFF CURVE # :76.00      DRAINAGE RATE     : 0.60         FERT. FACTOR : 1.00 
                                                                                
 Maize      CULTIVAR :CI0003-FNC3056            ECOTYPE :IB0001                 
 P1     : 233.00  P2     : 0.5000  P5     : 976.00                              
 G2     : 956.00  G3     :  7.500  PHINT  : 45.600                              


*SIMULATED CROP AND SOIL STATUS AT MAIN DEVELOPMENT STAGES

 RUN NO.     4     P07/29                  

        CROP GROWTH     BIOMASS         LEAF   CROP N     STRESS      STRESS                                           
   DATE  AGE STAGE        kg/ha    LAI   NUM  kg/ha  %   H2O  Nitr Phos1 Phos2  RSTG                                   
 ------  --- ----------   -----  -----  ----  ---  ---  ----  ----  ----  ----  ----                                   
 29 JUN    0 Start Sim        0   0.00   0.0    0  0.0  0.00  0.00  0.00  0.00     7
 29 JUL    0 Sowing           0   0.00   0.0    0  0.0  0.00  0.00  0.00  0.00     8
 30 JUL    1 Germinate        0   0.00   0.0    0  0.0  0.00  0.00  0.00  0.00     9
  3 AUG    5 Emergence       25   0.00   2.2    1  4.4  0.00  0.01  0.00  0.00     1
 14 AUG   16 End Juveni     149   0.31   7.9    5  3.1  0.05  0.01  0.00  0.00     2
 22 AUG   24 Floral Ini     534   0.88  11.6   19  3.6  0.16  0.00  0.00  0.00     3
 25 SEP   58 75% Silkin    6881   3.14  24.0  132  1.9  0.26  0.00  0.00  0.00     4
  3 OCT   66 Beg Gr Fil    8414   2.73  24.0  132  1.6  0.43  0.00  0.00  0.00     5
  9 NOV  103 End Gr Fil   10544   0.71  24.0  132  1.2  0.79  0.00  0.00  0.00     6
 12 NOV  106 Maturity     10544   0.71  24.0  132  1.2  0.29  0.00  0.00  0.00    10
 12 NOV  106 Harvest      10544   0.71  24.0  132  1.2  0.00  0.00  0.00  0.00    10


*MAIN GROWTH AND DEVELOPMENT VARIABLES

@     VARIABLE                                         SIMULATED     MEASURED
      --------                                         ---------     --------
      Anthesis day (dap)                                      58          -99
      Physiological maturity day (dap)                       106          -99
      Yield at harvest maturity (kg [dm]/ha)                3463          -99
      Number at maturity (no/m2)                            2992          -99
      Unit wt at maturity (g [dm]/unit)                   0.1158          -99
      Number at maturity (no/unit)                         482.5          -99
      Tops weight at maturity (kg [dm]/ha)                 10544          -99
      By-product produced (stalk) at maturity (kg[dm]/ha    7146          -99
      Leaf area index, maximum                              3.14          -99
      Harvest index at maturity                            0.328          -99
      Grain N at maturity (kg/ha)                             64          -99
      Tops N at maturity (kg/ha)                             132          -99
      Stem N at maturity (kg/ha)                              68          -99
      Grain N at maturity (%)                                1.8          -99
      Tops weight at anthesis (kg [dm]/ha)                  6530          -99
      Tops N at anthesis (kg/ha)                             131          -99
      Leaf number per stem at maturity                     24.00          -99
      Emergence day (dap)                                      5          -99


*ENVIRONMENTAL AND STRESS FACTORS

 |-----Development Phase------|--------------------------------------Environment--------------------------------------|-----------------Stress-----------------|
                              |---------------Average--------------|-----Cumulative-----|--------Count of days--------|          (0=Min, 1=Max Stress)         |
                         Time  Temp  Temp  Temp Solar Photop                Evapo    Pot TMIN TMIN TMAX TMAX TMAX RAIN|----Water----|---Nitrogen--|-Phosphorus-|
                         Span   Max   Min  Mean   Rad  [day]    CO2   Rain  Trans     ET   <    <    >    >    >    >   Photo         Photo         Photo
                         days    邂    邂    邂 MJ/m2     hr    ppm     mm     mm     mm  0邂  2邂 30邂 32邂 34邂  0mm  synth Growth  synth Growth  synth Growth
----------------------------------------------------------------------------------------------------------------------------------------------------------------
 Emergence-End Juvenile    11  34.8  22.1  28.5  18.3  24.00  387.5    0.7    4.8   59.7    0    0   11    9    9    1  0.000  0.050  0.004  0.011  0.000  0.000
 End Juvenil-Floral Init    8  33.7  23.2  28.5  17.3  24.00  387.6   12.5   15.2   39.5    0    0    8    7    3    3  0.024  0.120  0.001  0.002  0.000  0.000
 Floral Init-End Lf Grow   34  35.0  21.9  28.4  21.3  17.49  387.7  171.4  140.8  195.3    0    0   33   31   23    8  0.187  0.274  0.000  0.000  0.000  0.000
 End Lf Grth-Beg Grn Fil    8  36.7  22.0  29.3  22.4   9.30  387.9    0.0   36.3   50.4    0    0    8    8    8    0  0.258  0.339  0.000  0.000  0.000  0.000
 Grain Filling Phase       37  34.0  22.4  28.2  18.7   1.53  388.0   37.8   53.0  186.4    0    0   36   29   17   13  0.729  0.781  0.000  0.000  0.000  0.000


 Planting to Harvest      106  34.6  22.2  28.4  19.8  12.28  387.8  237.0  258.8  581.0    0    0  104   92   67   28  0.353  0.418  0.001  0.001  0.000  0.000
----------------------------------------------------------------------------------------------------------------------------------------------------------------


*Resource Productivity
 Growing season length: 106 days 

 Precipitation during growing season       237.0 mm[rain]
   Dry Matter Productivity                  4.45 kg[DM]/m3[rain]          =   44.5 kg[DM]/ha per mm[rain]
   Yield Productivity                       1.46 kg[grain yield]/m3[rain] =   14.6 kg[yield]/ha per mm[rain]

 Evapotranspiration during growing season  258.8 mm[ET]
   Dry Matter Productivity                  4.07 kg[DM]/m3[ET]            =   40.7 kg[DM]/ha per mm[ET]
   Yield Productivity                       1.34 kg[grain yield]/m3[ET]   =   13.4 kg[yield]/ha per mm[ET]

 Transpiration during growing season       192.0 mm[EP]
   Dry Matter Productivity                  5.49 kg[DM]/m3[EP]            =   54.9 kg[DM]/ha per mm[EP]
   Yield Productivity                       1.80 kg[grain yield]/m3[EP]   =   18.0 kg[yield]/ha per mm[EP]

 N applied during growing season            162. kg[N applied]/ha
   Dry Matter Productivity                  65.1 kg[DM]/kg[N applied]
   Yield Productivity                       21.4 kg[yield]/kg[N applied]

 N uptake during growing season              147 kg[N uptake]/ha
   Dry Matter Productivity                  71.7 kg[DM]/kg[N uptake]
   Yield Productivity                       23.6 kg[yield]/kg[N uptake]

--------------------------------------------------------------------------------------------------------------

                     Maize YIELD :     3463 kg/ha    [Dry weight] 

**************************************************************************************************************

*DSSAT Cropping System Model Ver. 4.6.1.000 -release      OCT 02, 2017; 12:42:59
                                                                                
*RUN   5        : P08/03                    MZCER046 ANES2009    5              
 MODEL          : MZCER046 - Maize                                              
 EXPERIMENT     : ANES2009 MZ  MZ Analisis a침os de bajo rendimiento Espinal    
 DATA PATH      : C:\DSSAT46\maize\                                             
 TREATMENT  5   : P08/03                    MZCER046                            
                                                                                
                                                                                
 CROP           : Maize            CULTIVAR : FNC3056          ECOTYPE :IB0001  
 STARTING DATE  : JUL  4 2009                                                   
 PLANTING DATE  : AUG  3 2009        PLANTS/m2 :  6.2     ROW SPACING :  80.cm  
 WEATHER        : CNAT   2009                                                   
 SOIL           : CCESPI2017     TEXTURE : SL    -   Suelo Espinal Calibraci    
 SOIL INITIAL C : DEPTH:100cm EXTR. H2O: 83.6mm  NO3:100.0kg/ha  NH4: 72.3kg/ha 
 WATER BALANCE  : RAINFED                                                       
 IRRIGATION     : NOT IRRIGATED                                                 
 NITROGEN BAL.  : SOIL-N & N-UPTAKE SIMULATION; NO N-FIXATION                   
 N-FERTILIZER   :      162 kg/ha IN     6 APPLICATIONS                          
 RESIDUE/MANURE : INITIAL :     0 kg/ha ;       0 kg/ha IN     0 APPLICATIONS   
 ENVIRONM. OPT. : DAYL=    0.00  SRAD=    0.00  TMAX=    0.00  TMIN=    0.00    
                  RAIN=    0.00  CO2 =    0.00  DEW =    0.00  WIND=    0.00    
 SIMULATION OPT : WATER   :Y  NITROGEN:Y  N-FIX:N  PHOSPH :N  PESTS  :N         
                  PHOTO   :C  ET      :R  INFIL:S  HYDROL :R  SOM    :G         
                  CO2 387ppm  NSWIT   :1  EVAP :S  SOIL   :2  STEMP  :D         
 MANAGEMENT OPT : PLANTING:R  IRRIG   :N  FERT :D  RESIDUE:R  HARVEST:M         
                  WEATHER :M  TILLAGE :N                                        
                                                                                
*SUMMARY OF SOIL AND GENETIC INPUT PARAMETERS                                   
                                                                                
   SOIL LOWER UPPER   SAT  EXTR  INIT   ROOT   BULK     pH    NO3    NH4    ORG 
  DEPTH LIMIT LIMIT    SW    SW    SW   DIST   DENS                          C  
   cm   cm3/cm3    cm3/cm3    cm3/cm3         g/cm3         ugN/g  ugN/g     %  
------------------------------------------------------------------------------- 
  0-  5 0.160 0.252 0.376 0.092 0.252   1.00   1.69   6.60   8.90   4.51   0.45 
  5- 15 0.160 0.252 0.376 0.092 0.252   1.00   1.69   6.60   8.90   4.51   0.45 
 15- 30 0.160 0.252 0.376 0.092 0.252   1.00   1.69   6.60   8.90   4.51   0.45 
 30- 53 0.120 0.200 0.440 0.080 0.200   0.27   1.40   7.10   5.60   5.04   0.17 
 53- 77 0.120 0.200 0.440 0.080 0.200   0.27   1.40   7.10   5.60   5.04   0.17 
 77-100 0.120 0.200 0.440 0.080 0.200   0.27   1.40   7.10   5.60   5.04   0.17 
                                                                                
TOT-100  13.2  21.6  42.1   8.4  21.6  <--cm   -  kg/ha-->  100.0   72.3  39475 
SOIL ALBEDO    : 0.09      EVAPORATION LIMIT : 6.00         MIN. FACTOR  : 1.00 
RUNOFF CURVE # :76.00      DRAINAGE RATE     : 0.60         FERT. FACTOR : 1.00 
                                                                                
 Maize      CULTIVAR :CI0003-FNC3056            ECOTYPE :IB0001                 
 P1     : 233.00  P2     : 0.5000  P5     : 976.00                              
 G2     : 956.00  G3     :  7.500  PHINT  : 45.600                              


*SIMULATED CROP AND SOIL STATUS AT MAIN DEVELOPMENT STAGES

 RUN NO.     5     P08/03                  

        CROP GROWTH     BIOMASS         LEAF   CROP N     STRESS      STRESS                                           
   DATE  AGE STAGE        kg/ha    LAI   NUM  kg/ha  %   H2O  Nitr Phos1 Phos2  RSTG                                   
 ------  --- ----------   -----  -----  ----  ---  ---  ----  ----  ----  ----  ----                                   
  4 JUL    0 Start Sim        0   0.00   0.0    0  0.0  0.00  0.00  0.00  0.00     7
  3 AUG    0 Sowing           0   0.00   0.0    0  0.0  0.00  0.00  0.00  0.00     8
  4 AUG    1 Germinate        0   0.00   0.0    0  0.0  0.00  0.00  0.00  0.00     9
  8 AUG    5 Emergence       25   0.00   2.1    1  4.4  0.00  0.01  0.00  0.00     1
 19 AUG   16 End Juveni     145   0.30   7.9    5  3.3  0.02  0.00  0.00  0.00     2
 26 AUG   23 Floral Ini     508   0.84  11.0   18  3.6  0.07  0.00  0.00  0.00     3
 27 SEP   55 75% Silkin    6768   3.18  22.6  129  1.9  0.23  0.00  0.00  0.00     4
  5 OCT   63 Beg Gr Fil    7696   2.57  22.6  129  1.7  0.64  0.00  0.00  0.00     5
 12 NOV  101 End Gr Fil    9787   0.66  22.6  129  1.3  0.74  0.00  0.00  0.00     6
 14 NOV  103 Maturity      9787   0.66  22.6  129  1.3  0.00  0.00  0.00  0.00    10
 14 NOV  103 Harvest       9787   0.66  22.6  129  1.3  0.00  0.00  0.00  0.00    10


*MAIN GROWTH AND DEVELOPMENT VARIABLES

@     VARIABLE                                         SIMULATED     MEASURED
      --------                                         ---------     --------
      Anthesis day (dap)                                      55          -99
      Physiological maturity day (dap)                       103          -99
      Yield at harvest maturity (kg [dm]/ha)                3291          -99
      Number at maturity (no/m2)                            2212          -99
      Unit wt at maturity (g [dm]/unit)                   0.1488          -99
      Number at maturity (no/unit)                         356.7          -99
      Tops weight at maturity (kg [dm]/ha)                  9787          -99
      By-product produced (stalk) at maturity (kg[dm]/ha    6558          -99
      Leaf area index, maximum                              3.18          -99
      Harvest index at maturity                            0.336          -99
      Grain N at maturity (kg/ha)                             61          -99
      Tops N at maturity (kg/ha)                             129          -99
      Stem N at maturity (kg/ha)                              68          -99
      Grain N at maturity (%)                                1.9          -99
      Tops weight at anthesis (kg [dm]/ha)                  6425          -99
      Tops N at anthesis (kg/ha)                             128          -99
      Leaf number per stem at maturity                     22.65          -99
      Emergence day (dap)                                      5          -99


*ENVIRONMENTAL AND STRESS FACTORS

 |-----Development Phase------|--------------------------------------Environment--------------------------------------|-----------------Stress-----------------|
                              |---------------Average--------------|-----Cumulative-----|--------Count of days--------|          (0=Min, 1=Max Stress)         |
                         Time  Temp  Temp  Temp Solar Photop                Evapo    Pot TMIN TMIN TMAX TMAX TMAX RAIN|----Water----|---Nitrogen--|-Phosphorus-|
                         Span   Max   Min  Mean   Rad  [day]    CO2   Rain  Trans     ET   <    <    >    >    >    >   Photo         Photo         Photo
                         days    邂    邂    邂 MJ/m2     hr    ppm     mm     mm     mm  0邂  2邂 30邂 32邂 34邂  0mm  synth Growth  synth Growth  synth Growth
----------------------------------------------------------------------------------------------------------------------------------------------------------------
 Emergence-End Juvenile    11  34.3  22.4  28.3  18.7  24.00  387.5    9.7    6.5   61.3    0    0   11    9    7    2  0.000  0.014  0.002  0.006  0.000  0.000
 End Juvenil-Floral Init    7  33.9  22.0  27.9  19.6  24.00  387.7   25.0   22.2   38.8    0    0    7    7    3    3  0.000  0.083  0.001  0.002  0.000  0.000
 Floral Init-End Lf Grow   32  35.2  22.0  28.6  21.3  16.23  387.7  149.9  136.7  185.8    0    0   31   29   23    7  0.158  0.228  0.000  0.000  0.000  0.000
 End Lf Grth-Beg Grn Fil    8  36.4  22.6  29.5  21.4   8.56  387.9    0.4   26.3   47.7    0    0    8    8    8    1  0.446  0.550  0.000  0.000  0.000  0.000
 Grain Filling Phase       38  33.9  22.2  28.1  18.8   1.10  388.0   52.0   57.6  193.1    0    0   37   30   17   15  0.714  0.764  0.000  0.000  0.000  0.000


 Planting to Harvest      103  34.5  22.2  28.4  19.7  11.47  387.8  237.0  254.8  560.6    0    0  100   88   62   28  0.347  0.402  0.000  0.001  0.000  0.000
----------------------------------------------------------------------------------------------------------------------------------------------------------------


*Resource Productivity
 Growing season length: 103 days 

 Precipitation during growing season       237.0 mm[rain]
   Dry Matter Productivity                  4.13 kg[DM]/m3[rain]          =   41.3 kg[DM]/ha per mm[rain]
   Yield Productivity                       1.39 kg[grain yield]/m3[rain] =   13.9 kg[yield]/ha per mm[rain]

 Evapotranspiration during growing season  254.8 mm[ET]
   Dry Matter Productivity                  3.84 kg[DM]/m3[ET]            =   38.4 kg[DM]/ha per mm[ET]
   Yield Productivity                       1.29 kg[grain yield]/m3[ET]   =   12.9 kg[yield]/ha per mm[ET]

 Transpiration during growing season       180.3 mm[EP]
   Dry Matter Productivity                  5.43 kg[DM]/m3[EP]            =   54.3 kg[DM]/ha per mm[EP]
   Yield Productivity                       1.83 kg[grain yield]/m3[EP]   =   18.3 kg[yield]/ha per mm[EP]

 N applied during growing season            162. kg[N applied]/ha
   Dry Matter Productivity                  60.4 kg[DM]/kg[N applied]
   Yield Productivity                       20.3 kg[yield]/kg[N applied]

 N uptake during growing season              143 kg[N uptake]/ha
   Dry Matter Productivity                  68.4 kg[DM]/kg[N uptake]
   Yield Productivity                       23.0 kg[yield]/kg[N uptake]

--------------------------------------------------------------------------------------------------------------

                     Maize YIELD :     3291 kg/ha    [Dry weight] 

**************************************************************************************************************

*DSSAT Cropping System Model Ver. 4.6.1.000 -release      OCT 02, 2017; 12:42:59
                                                                                
*RUN   6        : P08/08                    MZCER046 ANES2009    6              
 MODEL          : MZCER046 - Maize                                              
 EXPERIMENT     : ANES2009 MZ  MZ Analisis a침os de bajo rendimiento Espinal    
 DATA PATH      : C:\DSSAT46\maize\                                             
 TREATMENT  6   : P08/08                    MZCER046                            
                                                                                
                                                                                
 CROP           : Maize            CULTIVAR : FNC3056          ECOTYPE :IB0001  
 STARTING DATE  : JUL  9 2009                                                   
 PLANTING DATE  : AUG  8 2009        PLANTS/m2 :  6.2     ROW SPACING :  80.cm  
 WEATHER        : CNAT   2009                                                   
 SOIL           : CCESPI2017     TEXTURE : SL    -   Suelo Espinal Calibraci    
 SOIL INITIAL C : DEPTH:100cm EXTR. H2O: 83.6mm  NO3:100.0kg/ha  NH4: 72.3kg/ha 
 WATER BALANCE  : RAINFED                                                       
 IRRIGATION     : NOT IRRIGATED                                                 
 NITROGEN BAL.  : SOIL-N & N-UPTAKE SIMULATION; NO N-FIXATION                   
 N-FERTILIZER   :      162 kg/ha IN     6 APPLICATIONS                          
 RESIDUE/MANURE : INITIAL :     0 kg/ha ;       0 kg/ha IN     0 APPLICATIONS   
 ENVIRONM. OPT. : DAYL=    0.00  SRAD=    0.00  TMAX=    0.00  TMIN=    0.00    
                  RAIN=    0.00  CO2 =    0.00  DEW =    0.00  WIND=    0.00    
 SIMULATION OPT : WATER   :Y  NITROGEN:Y  N-FIX:N  PHOSPH :N  PESTS  :N         
                  PHOTO   :C  ET      :R  INFIL:S  HYDROL :R  SOM    :G         
                  CO2 387ppm  NSWIT   :1  EVAP :S  SOIL   :2  STEMP  :D         
 MANAGEMENT OPT : PLANTING:R  IRRIG   :N  FERT :D  RESIDUE:R  HARVEST:M         
                  WEATHER :M  TILLAGE :N                                        
                                                                                
*SUMMARY OF SOIL AND GENETIC INPUT PARAMETERS                                   
                                                                                
   SOIL LOWER UPPER   SAT  EXTR  INIT   ROOT   BULK     pH    NO3    NH4    ORG 
  DEPTH LIMIT LIMIT    SW    SW    SW   DIST   DENS                          C  
   cm   cm3/cm3    cm3/cm3    cm3/cm3         g/cm3         ugN/g  ugN/g     %  
------------------------------------------------------------------------------- 
  0-  5 0.160 0.252 0.376 0.092 0.252   1.00   1.69   6.60   8.90   4.51   0.45 
  5- 15 0.160 0.252 0.376 0.092 0.252   1.00   1.69   6.60   8.90   4.51   0.45 
 15- 30 0.160 0.252 0.376 0.092 0.252   1.00   1.69   6.60   8.90   4.51   0.45 
 30- 53 0.120 0.200 0.440 0.080 0.200   0.27   1.40   7.10   5.60   5.04   0.17 
 53- 77 0.120 0.200 0.440 0.080 0.200   0.27   1.40   7.10   5.60   5.04   0.17 
 77-100 0.120 0.200 0.440 0.080 0.200   0.27   1.40   7.10   5.60   5.04   0.17 
                                                                                
TOT-100  13.2  21.6  42.1   8.4  21.6  <--cm   -  kg/ha-->  100.0   72.3  39475 
SOIL ALBEDO    : 0.09      EVAPORATION LIMIT : 6.00         MIN. FACTOR  : 1.00 
RUNOFF CURVE # :76.00      DRAINAGE RATE     : 0.60         FERT. FACTOR : 1.00 
                                                                                
 Maize      CULTIVAR :CI0003-FNC3056            ECOTYPE :IB0001                 
 P1     : 233.00  P2     : 0.5000  P5     : 976.00                              
 G2     : 956.00  G3     :  7.500  PHINT  : 45.600                              


*SIMULATED CROP AND SOIL STATUS AT MAIN DEVELOPMENT STAGES

 RUN NO.     6     P08/08                  

        CROP GROWTH     BIOMASS         LEAF   CROP N     STRESS      STRESS                                           
   DATE  AGE STAGE        kg/ha    LAI   NUM  kg/ha  %   H2O  Nitr Phos1 Phos2  RSTG                                   
 ------  --- ----------   -----  -----  ----  ---  ---  ----  ----  ----  ----  ----                                   
  9 JUL    0 Start Sim        0   0.00   0.0    0  0.0  0.00  0.00  0.00  0.00     7
  8 AUG    0 Sowing           0   0.00   0.0    0  0.0  0.00  0.00  0.00  0.00     8
  9 AUG    1 Germinate        0   0.00   0.0    0  0.0  0.00  0.00  0.00  0.00     9
 13 AUG    5 Emergence       25   0.00   2.2    1  4.4  0.00  0.01  0.00  0.00     1
 24 AUG   16 End Juveni     149   0.31   7.9    5  3.3  0.02  0.00  0.00  0.00     2
 30 AUG   22 Floral Ini     486   0.82  10.6   18  3.6  0.00  0.00  0.00  0.00     3
 30 SEP   53 75% Silkin    6607   3.26  21.8  134  2.0  0.22  0.00  0.00  0.00     4
  8 OCT   61 Beg Gr Fil    6983   2.42  21.8  134  1.9  0.82  0.00  0.00  0.00     5
 15 NOV   99 End Gr Fil    8838   0.69  21.8  134  1.5  0.72  0.00  0.00  0.00     6
 17 NOV  101 Maturity      8838   0.69  21.8  134  1.5  0.89  0.00  0.00  0.00    10
 17 NOV  101 Harvest       8838   0.69  21.8  134  1.5  0.00  0.00  0.00  0.00    10


*MAIN GROWTH AND DEVELOPMENT VARIABLES

@     VARIABLE                                         SIMULATED     MEASURED
      --------                                         ---------     --------
      Anthesis day (dap)                                      53          -99
      Physiological maturity day (dap)                       101          -99
      Yield at harvest maturity (kg [dm]/ha)                2208          -99
      Number at maturity (no/m2)                            1389          -99
      Unit wt at maturity (g [dm]/unit)                   0.1590          -99
      Number at maturity (no/unit)                         224.0          -99
      Tops weight at maturity (kg [dm]/ha)                  8838          -99
      By-product produced (stalk) at maturity (kg[dm]/ha    6691          -99
      Leaf area index, maximum                              3.35          -99
      Harvest index at maturity                            0.250          -99
      Grain N at maturity (kg/ha)                             41          -99
      Tops N at maturity (kg/ha)                             134          -99
      Stem N at maturity (kg/ha)                              94          -99
      Grain N at maturity (%)                                1.8          -99
      Tops weight at anthesis (kg [dm]/ha)                  6434          -99
      Tops N at anthesis (kg/ha)                             131          -99
      Leaf number per stem at maturity                     21.84          -99
      Emergence day (dap)                                      5          -99


*ENVIRONMENTAL AND STRESS FACTORS

 |-----Development Phase------|--------------------------------------Environment--------------------------------------|-----------------Stress-----------------|
                              |---------------Average--------------|-----Cumulative-----|--------Count of days--------|          (0=Min, 1=Max Stress)         |
                         Time  Temp  Temp  Temp Solar Photop                Evapo    Pot TMIN TMIN TMAX TMAX TMAX RAIN|----Water----|---Nitrogen--|-Phosphorus-|
                         Span   Max   Min  Mean   Rad  [day]    CO2   Rain  Trans     ET   <    <    >    >    >    >   Photo         Photo         Photo
                         days    邂    邂    邂 MJ/m2     hr    ppm     mm     mm     mm  0邂  2邂 30邂 32邂 34邂  0mm  synth Growth  synth Growth  synth Growth
----------------------------------------------------------------------------------------------------------------------------------------------------------------
 Emergence-End Juvenile    11  34.1  22.9  28.5  18.6  24.00  387.6   34.7   14.6   60.8    0    0   11   10    6    5  0.000  0.023  0.002  0.005  0.000  0.000
 End Juvenil-Floral Init    6  33.6  20.9  27.2  20.4  23.87  387.7    0.0   17.1   34.4    0    0    5    5    3    0  0.000  0.000  0.001  0.002  0.000  0.000
 Floral Init-End Lf Grow   31  35.5  22.2  28.8  21.4  14.61  387.8  149.9  139.1  183.4    0    0   31   29   23    7  0.126  0.201  0.000  0.000  0.000  0.000
 End Lf Grth-Beg Grn Fil    8  36.2  23.0  29.6  20.9   7.38  387.9    0.4   15.7   46.3    0    0    8    8    7    1  0.687  0.792  0.000  0.000  0.000  0.000
 Grain Filling Phase       38  33.6  22.2  27.9  18.4   0.60  388.0   52.0   60.1  188.3    0    0   36   29   15   15  0.669  0.721  0.000  0.000  0.000  0.000


 Planting to Harvest      101  34.5  22.2  28.3  19.7  10.51  387.9  237.5  249.5  551.9    0    0   98   87   59   29  0.361  0.415  0.000  0.001  0.000  0.000
----------------------------------------------------------------------------------------------------------------------------------------------------------------


*Resource Productivity
 Growing season length: 101 days 

 Precipitation during growing season       237.5 mm[rain]
   Dry Matter Productivity                  3.72 kg[DM]/m3[rain]          =   37.2 kg[DM]/ha per mm[rain]
   Yield Productivity                       0.93 kg[grain yield]/m3[rain] =    9.3 kg[yield]/ha per mm[rain]

 Evapotranspiration during growing season  249.5 mm[ET]
   Dry Matter Productivity                  3.54 kg[DM]/m3[ET]            =   35.4 kg[DM]/ha per mm[ET]
   Yield Productivity                       0.89 kg[grain yield]/m3[ET]   =    8.9 kg[yield]/ha per mm[ET]

 Transpiration during growing season       170.4 mm[EP]
   Dry Matter Productivity                  5.19 kg[DM]/m3[EP]            =   51.9 kg[DM]/ha per mm[EP]
   Yield Productivity                       1.30 kg[grain yield]/m3[EP]   =   13.0 kg[yield]/ha per mm[EP]

 N applied during growing season            162. kg[N applied]/ha
   Dry Matter Productivity                  54.6 kg[DM]/kg[N applied]
   Yield Productivity                       13.6 kg[yield]/kg[N applied]

 N uptake during growing season              149 kg[N uptake]/ha
   Dry Matter Productivity                  59.3 kg[DM]/kg[N uptake]
   Yield Productivity                       14.8 kg[yield]/kg[N uptake]

--------------------------------------------------------------------------------------------------------------

                     Maize YIELD :     2208 kg/ha    [Dry weight] 

**************************************************************************************************************

*DSSAT Cropping System Model Ver. 4.6.1.000 -release      OCT 02, 2017; 12:42:59
                                                                                
*RUN   7        : P08/13                    MZCER046 ANES2009    7              
 MODEL          : MZCER046 - Maize                                              
 EXPERIMENT     : ANES2009 MZ  MZ Analisis a침os de bajo rendimiento Espinal    
 DATA PATH      : C:\DSSAT46\maize\                                             
 TREATMENT  7   : P08/13                    MZCER046                            
                                                                                
                                                                                
 CROP           : Maize            CULTIVAR : FNC3056          ECOTYPE :IB0001  
 STARTING DATE  : JUL 14 2009                                                   
 PLANTING DATE  : AUG 13 2009        PLANTS/m2 :  6.2     ROW SPACING :  80.cm  
 WEATHER        : CNAT   2009                                                   
 SOIL           : CCESPI2017     TEXTURE : SL    -   Suelo Espinal Calibraci    
 SOIL INITIAL C : DEPTH:100cm EXTR. H2O: 83.6mm  NO3:100.0kg/ha  NH4: 72.3kg/ha 
 WATER BALANCE  : RAINFED                                                       
 IRRIGATION     : NOT IRRIGATED                                                 
 NITROGEN BAL.  : SOIL-N & N-UPTAKE SIMULATION; NO N-FIXATION                   
 N-FERTILIZER   :      162 kg/ha IN     6 APPLICATIONS                          
 RESIDUE/MANURE : INITIAL :     0 kg/ha ;       0 kg/ha IN     0 APPLICATIONS   
 ENVIRONM. OPT. : DAYL=    0.00  SRAD=    0.00  TMAX=    0.00  TMIN=    0.00    
                  RAIN=    0.00  CO2 =    0.00  DEW =    0.00  WIND=    0.00    
 SIMULATION OPT : WATER   :Y  NITROGEN:Y  N-FIX:N  PHOSPH :N  PESTS  :N         
                  PHOTO   :C  ET      :R  INFIL:S  HYDROL :R  SOM    :G         
                  CO2 387ppm  NSWIT   :1  EVAP :S  SOIL   :2  STEMP  :D         
 MANAGEMENT OPT : PLANTING:R  IRRIG   :N  FERT :D  RESIDUE:R  HARVEST:M         
                  WEATHER :M  TILLAGE :N                                        
                                                                                
*SUMMARY OF SOIL AND GENETIC INPUT PARAMETERS                                   
                                                                                
   SOIL LOWER UPPER   SAT  EXTR  INIT   ROOT   BULK     pH    NO3    NH4    ORG 
  DEPTH LIMIT LIMIT    SW    SW    SW   DIST   DENS                          C  
   cm   cm3/cm3    cm3/cm3    cm3/cm3         g/cm3         ugN/g  ugN/g     %  
------------------------------------------------------------------------------- 
  0-  5 0.160 0.252 0.376 0.092 0.252   1.00   1.69   6.60   8.90   4.51   0.45 
  5- 15 0.160 0.252 0.376 0.092 0.252   1.00   1.69   6.60   8.90   4.51   0.45 
 15- 30 0.160 0.252 0.376 0.092 0.252   1.00   1.69   6.60   8.90   4.51   0.45 
 30- 53 0.120 0.200 0.440 0.080 0.200   0.27   1.40   7.10   5.60   5.04   0.17 
 53- 77 0.120 0.200 0.440 0.080 0.200   0.27   1.40   7.10   5.60   5.04   0.17 
 77-100 0.120 0.200 0.440 0.080 0.200   0.27   1.40   7.10   5.60   5.04   0.17 
                                                                                
TOT-100  13.2  21.6  42.1   8.4  21.6  <--cm   -  kg/ha-->  100.0   72.3  39475 
SOIL ALBEDO    : 0.09      EVAPORATION LIMIT : 6.00         MIN. FACTOR  : 1.00 
RUNOFF CURVE # :76.00      DRAINAGE RATE     : 0.60         FERT. FACTOR : 1.00 
                                                                                
 Maize      CULTIVAR :CI0003-FNC3056            ECOTYPE :IB0001                 
 P1     : 233.00  P2     : 0.5000  P5     : 976.00                              
 G2     : 956.00  G3     :  7.500  PHINT  : 45.600                              


*SIMULATED CROP AND SOIL STATUS AT MAIN DEVELOPMENT STAGES

 RUN NO.     7     P08/13                  

        CROP GROWTH     BIOMASS         LEAF   CROP N     STRESS      STRESS                                           
   DATE  AGE STAGE        kg/ha    LAI   NUM  kg/ha  %   H2O  Nitr Phos1 Phos2  RSTG                                   
 ------  --- ----------   -----  -----  ----  ---  ---  ----  ----  ----  ----  ----                                   
 14 JUL    0 Start Sim        0   0.00   0.0    0  0.0  0.00  0.00  0.00  0.00     7
 13 AUG    0 Sowing           0   0.00   0.0    0  0.0  0.00  0.00  0.00  0.00     8
 14 AUG    1 Germinate        0   0.00   0.0    0  0.0  0.00  0.00  0.00  0.00     9
 18 AUG    5 Emergence       25   0.00   2.2    1  4.4  0.00  0.01  0.00  0.00     1
 29 AUG   16 End Juveni     140   0.29   7.8    5  3.2  0.00  0.00  0.00  0.00     2
  3 SEP   21 Floral Ini     399   0.69  10.2   15  3.6  0.05  0.00  0.00  0.00     3
  3 OCT   51 75% Silkin    5924   2.97  21.0  125  2.1  0.26  0.00  0.00  0.00     4
 11 OCT   59 Beg Gr Fil    6078   2.13  21.0  125  2.1  0.87  0.00  0.00  0.00     5
 18 NOV   97 End Gr Fil    7539   0.61  21.0  125  1.7  0.72  0.00  0.00  0.00     6
 20 NOV   99 Maturity      7539   0.61  21.0  125  1.7  0.93  0.00  0.00  0.00    10
 20 NOV   99 Harvest       7539   0.61  21.0  125  1.7  0.00  0.00  0.00  0.00    10


*MAIN GROWTH AND DEVELOPMENT VARIABLES

@     VARIABLE                                         SIMULATED     MEASURED
      --------                                         ---------     --------
      Anthesis day (dap)                                      51          -99
      Physiological maturity day (dap)                        99          -99
      Yield at harvest maturity (kg [dm]/ha)                1605          -99
      Number at maturity (no/m2)                             994          -99
      Unit wt at maturity (g [dm]/unit)                   0.1616          -99
      Number at maturity (no/unit)                         160.3          -99
      Tops weight at maturity (kg [dm]/ha)                  7539          -99
      By-product produced (stalk) at maturity (kg[dm]/ha    5992          -99
      Leaf area index, maximum                              3.26          -99
      Harvest index at maturity                            0.213          -99
      Grain N at maturity (kg/ha)                             30          -99
      Tops N at maturity (kg/ha)                             125          -99
      Stem N at maturity (kg/ha)                              95          -99
      Grain N at maturity (%)                                1.8          -99
      Tops weight at anthesis (kg [dm]/ha)                  5835          -99
      Tops N at anthesis (kg/ha)                             125          -99
      Leaf number per stem at maturity                     20.98          -99
      Emergence day (dap)                                      5          -99


*ENVIRONMENTAL AND STRESS FACTORS

 |-----Development Phase------|--------------------------------------Environment--------------------------------------|-----------------Stress-----------------|
                              |---------------Average--------------|-----Cumulative-----|--------Count of days--------|          (0=Min, 1=Max Stress)         |
                         Time  Temp  Temp  Temp Solar Photop                Evapo    Pot TMIN TMIN TMAX TMAX TMAX RAIN|----Water----|---Nitrogen--|-Phosphorus-|
                         Span   Max   Min  Mean   Rad  [day]    CO2   Rain  Trans     ET   <    <    >    >    >    >   Photo         Photo         Photo
                         days    邂    邂    邂 MJ/m2     hr    ppm     mm     mm     mm  0邂  2邂 30邂 32邂 34邂  0mm  synth Growth  synth Growth  synth Growth
----------------------------------------------------------------------------------------------------------------------------------------------------------------
 Emergence-End Juvenile    11  33.7  21.8  27.7  19.5  24.00  387.7   25.0   24.9   62.9    0    0   10   10    5    3  0.000  0.000  0.002  0.005  0.000  0.000
 End Juvenil-Floral Init    5  35.2  22.2  28.7  21.4  20.99  387.7    0.8   10.2   31.5    0    0    5    5    4    1  0.000  0.000  0.000  0.001  0.000  0.000
 Floral Init-End Lf Grow   30  35.7  22.1  28.9  21.5  13.21  387.8  149.1  133.9  181.0    0    0   30   28   23    6  0.133  0.242  0.000  0.000  0.000  0.000
 End Lf Grth-Beg Grn Fil    8  36.1  22.7  29.4  20.6   6.06  387.9    0.4   10.6   45.6    0    0    8    8    7    1  0.777  0.852  0.000  0.000  0.000  0.000
 Grain Filling Phase       38  33.3  22.3  27.8  18.0   0.22  388.1   52.9   60.6  182.9    0    0   36   28   13   17  0.663  0.722  0.000  0.000  0.000  0.000


 Planting to Harvest       99  34.4  22.3  28.3  19.6   9.51  387.9  237.9  244.0  541.9    0    0   96   85   55   30  0.375  0.438  0.000  0.001  0.000  0.000
----------------------------------------------------------------------------------------------------------------------------------------------------------------


*Resource Productivity
 Growing season length:  99 days 

 Precipitation during growing season       237.9 mm[rain]
   Dry Matter Productivity                  3.17 kg[DM]/m3[rain]          =   31.7 kg[DM]/ha per mm[rain]
   Yield Productivity                       0.67 kg[grain yield]/m3[rain] =    6.7 kg[yield]/ha per mm[rain]

 Evapotranspiration during growing season  244.0 mm[ET]
   Dry Matter Productivity                  3.09 kg[DM]/m3[ET]            =   30.9 kg[DM]/ha per mm[ET]
   Yield Productivity                       0.66 kg[grain yield]/m3[ET]   =    6.6 kg[yield]/ha per mm[ET]

 Transpiration during growing season       156.4 mm[EP]
   Dry Matter Productivity                  4.82 kg[DM]/m3[EP]            =   48.2 kg[DM]/ha per mm[EP]
   Yield Productivity                       1.03 kg[grain yield]/m3[EP]   =   10.3 kg[yield]/ha per mm[EP]

 N applied during growing season            162. kg[N applied]/ha
   Dry Matter Productivity                  46.5 kg[DM]/kg[N applied]
   Yield Productivity                        9.9 kg[yield]/kg[N applied]

 N uptake during growing season              139 kg[N uptake]/ha
   Dry Matter Productivity                  54.2 kg[DM]/kg[N uptake]
   Yield Productivity                       11.5 kg[yield]/kg[N uptake]

--------------------------------------------------------------------------------------------------------------

                     Maize YIELD :     1605 kg/ha    [Dry weight] 

**************************************************************************************************************

*DSSAT Cropping System Model Ver. 4.6.1.000 -release      OCT 02, 2017; 12:42:59
                                                                                
*RUN   8        : P08/18                    MZCER046 ANES2009    8              
 MODEL          : MZCER046 - Maize                                              
 EXPERIMENT     : ANES2009 MZ  MZ Analisis a침os de bajo rendimiento Espinal    
 DATA PATH      : C:\DSSAT46\maize\                                             
 TREATMENT  8   : P08/18                    MZCER046                            
                                                                                
                                                                                
 CROP           : Maize            CULTIVAR : FNC3056          ECOTYPE :IB0001  
 STARTING DATE  : JUL 19 2009                                                   
 PLANTING DATE  : AUG 18 2009        PLANTS/m2 :  6.2     ROW SPACING :  80.cm  
 WEATHER        : CNAT   2009                                                   
 SOIL           : CCESPI2017     TEXTURE : SL    -   Suelo Espinal Calibraci    
 SOIL INITIAL C : DEPTH:100cm EXTR. H2O: 83.6mm  NO3:100.0kg/ha  NH4: 72.3kg/ha 
 WATER BALANCE  : RAINFED                                                       
 IRRIGATION     : NOT IRRIGATED                                                 
 NITROGEN BAL.  : SOIL-N & N-UPTAKE SIMULATION; NO N-FIXATION                   
 N-FERTILIZER   :      162 kg/ha IN     6 APPLICATIONS                          
 RESIDUE/MANURE : INITIAL :     0 kg/ha ;       0 kg/ha IN     0 APPLICATIONS   
 ENVIRONM. OPT. : DAYL=    0.00  SRAD=    0.00  TMAX=    0.00  TMIN=    0.00    
                  RAIN=    0.00  CO2 =    0.00  DEW =    0.00  WIND=    0.00    
 SIMULATION OPT : WATER   :Y  NITROGEN:Y  N-FIX:N  PHOSPH :N  PESTS  :N         
                  PHOTO   :C  ET      :R  INFIL:S  HYDROL :R  SOM    :G         
                  CO2 387ppm  NSWIT   :1  EVAP :S  SOIL   :2  STEMP  :D         
 MANAGEMENT OPT : PLANTING:R  IRRIG   :N  FERT :D  RESIDUE:R  HARVEST:M         
                  WEATHER :M  TILLAGE :N                                        
                                                                                
*SUMMARY OF SOIL AND GENETIC INPUT PARAMETERS                                   
                                                                                
   SOIL LOWER UPPER   SAT  EXTR  INIT   ROOT   BULK     pH    NO3    NH4    ORG 
  DEPTH LIMIT LIMIT    SW    SW    SW   DIST   DENS                          C  
   cm   cm3/cm3    cm3/cm3    cm3/cm3         g/cm3         ugN/g  ugN/g     %  
------------------------------------------------------------------------------- 
  0-  5 0.160 0.252 0.376 0.092 0.252   1.00   1.69   6.60   8.90   4.51   0.45 
  5- 15 0.160 0.252 0.376 0.092 0.252   1.00   1.69   6.60   8.90   4.51   0.45 
 15- 30 0.160 0.252 0.376 0.092 0.252   1.00   1.69   6.60   8.90   4.51   0.45 
 30- 53 0.120 0.200 0.440 0.080 0.200   0.27   1.40   7.10   5.60   5.04   0.17 
 53- 77 0.120 0.200 0.440 0.080 0.200   0.27   1.40   7.10   5.60   5.04   0.17 
 77-100 0.120 0.200 0.440 0.080 0.200   0.27   1.40   7.10   5.60   5.04   0.17 
                                                                                
TOT-100  13.2  21.6  42.1   8.4  21.6  <--cm   -  kg/ha-->  100.0   72.3  39475 
SOIL ALBEDO    : 0.09      EVAPORATION LIMIT : 6.00         MIN. FACTOR  : 1.00 
RUNOFF CURVE # :76.00      DRAINAGE RATE     : 0.60         FERT. FACTOR : 1.00 
                                                                                
 Maize      CULTIVAR :CI0003-FNC3056            ECOTYPE :IB0001                 
 P1     : 233.00  P2     : 0.5000  P5     : 976.00                              
 G2     : 956.00  G3     :  7.500  PHINT  : 45.600                              


*SIMULATED CROP AND SOIL STATUS AT MAIN DEVELOPMENT STAGES

 RUN NO.     8     P08/18                  

        CROP GROWTH     BIOMASS         LEAF   CROP N     STRESS      STRESS                                           
   DATE  AGE STAGE        kg/ha    LAI   NUM  kg/ha  %   H2O  Nitr Phos1 Phos2  RSTG                                   
 ------  --- ----------   -----  -----  ----  ---  ---  ----  ----  ----  ----  ----                                   
 19 JUL    0 Start Sim        0   0.00   0.0    0  0.0  0.00  0.00  0.00  0.00     7
 18 AUG    0 Sowing           0   0.00   0.0    0  0.0  0.00  0.00  0.00  0.00     8
 19 AUG    1 Germinate        0   0.00   0.0    0  0.0  0.00  0.00  0.00  0.00     9
 23 AUG    5 Emergence       25   0.00   2.2    1  4.4  0.00  0.01  0.00  0.00     1
  3 SEP   16 End Juveni     150   0.31   7.9    5  3.2  0.00  0.00  0.00  0.00     2
  8 SEP   21 Floral Ini     419   0.72  10.2   15  3.6  0.00  0.00  0.00  0.00     3
  7 OCT   50 75% Silkin    5174   2.65  21.1  117  2.3  0.33  0.00  0.00  0.00     4
 16 OCT   59 Beg Gr Fil    5477   1.88  21.1  117  2.1  0.82  0.00  0.00  0.00     5
 23 NOV   97 End Gr Fil    6869   0.51  21.1  117  1.7  0.75  0.00  0.00  0.00     6
 25 NOV   99 Maturity      6869   0.51  21.1  117  1.7  0.00  0.00  0.00  0.00    10
 25 NOV   99 Harvest       6869   0.51  21.1  117  1.7  0.00  0.00  0.00  0.00    10


*MAIN GROWTH AND DEVELOPMENT VARIABLES

@     VARIABLE                                         SIMULATED     MEASURED
      --------                                         ---------     --------
      Anthesis day (dap)                                      50          -99
      Physiological maturity day (dap)                        99          -99
      Yield at harvest maturity (kg [dm]/ha)                1669          -99
      Number at maturity (no/m2)                            1070          -99
[...]
 WATER BALANCE  : RAINFED                                                       
 IRRIGATION     : NOT IRRIGATED                                                 
 NITROGEN BAL.  : SOIL-N & N-UPTAKE SIMULATION; NO N-FIXATION                   
 N-FERTILIZER   :      162 kg/ha IN     6 APPLICATIONS                          
 RESIDUE/MANURE : INITIAL :     0 kg/ha ;       0 kg/ha IN     0 APPLICATIONS   
 ENVIRONM. OPT. : DAYL=    0.00  SRAD=    0.00  TMAX=    0.00  TMIN=    0.00    
                  RAIN=    0.00  CO2 =    0.00  DEW =    0.00  WIND=    0.00    
 SIMULATION OPT : WATER   :Y  NITROGEN:Y  N-FIX:N  PHOSPH :N  PESTS  :N         
                  PHOTO   :C  ET      :R  INFIL:S  HYDROL :R  SOM    :G         
                  CO2 388ppm  NSWIT   :1  EVAP :S  SOIL   :2  STEMP  :D         
 MANAGEMENT OPT : PLANTING:R  IRRIG   :N  FERT :D  RESIDUE:R  HARVEST:M         
                  WEATHER :M  TILLAGE :N                                        
                                                                                
*SUMMARY OF SOIL AND GENETIC INPUT PARAMETERS                                   
                                                                                
   SOIL LOWER UPPER   SAT  EXTR  INIT   ROOT   BULK     pH    NO3    NH4    ORG 
  DEPTH LIMIT LIMIT    SW    SW    SW   DIST   DENS                          C  
   cm   cm3/cm3    cm3/cm3    cm3/cm3         g/cm3         ugN/g  ugN/g     %  
------------------------------------------------------------------------------- 
  0-  5 0.160 0.252 0.376 0.092 0.252   1.00   1.69   6.60   8.90   4.51   0.45 
  5- 15 0.160 0.252 0.376 0.092 0.252   1.00   1.69   6.60   8.90   4.51   0.45 
 15- 30 0.160 0.252 0.376 0.092 0.252   1.00   1.69   6.60   8.90   4.51   0.45 
 30- 53 0.120 0.200 0.440 0.080 0.200   0.27   1.40   7.10   5.60   5.04   0.17 
 53- 77 0.120 0.200 0.440 0.080 0.200   0.27   1.40   7.10   5.60   5.04   0.17 
 77-100 0.120 0.200 0.440 0.080 0.200   0.27   1.40   7.10   5.60   5.04   0.17 
                                                                                
TOT-100  13.2  21.6  42.1   8.4  21.6  <--cm   -  kg/ha-->  100.0   72.3  39475 
SOIL ALBEDO    : 0.09      EVAPORATION LIMIT : 6.00         MIN. FACTOR  : 1.00 
RUNOFF CURVE # :76.00      DRAINAGE RATE     : 0.60         FERT. FACTOR : 1.00 
                                                                                
 Maize      CULTIVAR :CI0003-FNC3056            ECOTYPE :IB0001                 
 P1     : 233.00  P2     : 0.5000  P5     : 976.00                              
 G2     : 956.00  G3     :  7.500  PHINT  : 45.600                              


*SIMULATED CROP AND SOIL STATUS AT MAIN DEVELOPMENT STAGES

 RUN NO.    31     P11/26                  

        CROP GROWTH     BIOMASS         LEAF   CROP N     STRESS      STRESS                                           
   DATE  AGE STAGE        kg/ha    LAI   NUM  kg/ha  %   H2O  Nitr Phos1 Phos2  RSTG                                   
 ------  --- ----------   -----  -----  ----  ---  ---  ----  ----  ----  ----  ----                                   
 26 NOV    0 Start Sim        0   0.00   0.0    0  0.0  0.00  0.00  0.00  0.00     7
 26 DEC    0 Sowing           0   0.00   0.0    0  0.0  0.00  0.00  0.00  0.00     8
 27 DEC    1 Germinate        0   0.00   0.0    0  0.0  0.00  0.00  0.00  0.00     9
 31 DEC    5 Emergence       25   0.00   2.2    1  4.4  0.00  0.01  0.00  0.00     1
 11 JAN   16 End Juveni     146   0.30   7.8    5  3.2  0.00  0.00  0.00  0.00     2
 15 JAN   20 Floral Ini     347   0.62   9.7   13  3.7  0.00  0.00  0.00  0.00     3
 13 FEB   49 75% Silkin    2831   1.36  20.0   61  2.2  0.54  0.00  0.00  0.00     4
 21 FEB   57 Beg Gr Fil    2924   0.97  20.0   61  2.1  0.88  0.00  0.00  0.00     5
 30 MAR   94 End Gr Fil    4275   0.61  20.0   61  1.4  0.31  0.00  0.00  0.00     6
  1 APR   96 Maturity      4275   0.61  20.0   61  1.4  0.00  0.00  0.00  0.00    10
  1 APR   96 Harvest       4275   0.61  20.0   61  1.4  0.00  0.00  0.00  0.00    10


*MAIN GROWTH AND DEVELOPMENT VARIABLES

@     VARIABLE                                         SIMULATED     MEASURED
      --------                                         ---------     --------
      Anthesis day (dap)                                      49          -99
      Physiological maturity day (dap)                        96          -99
      Yield at harvest maturity (kg [dm]/ha)                1287          -99
      Number at maturity (no/m2)                             699          -99
      Unit wt at maturity (g [dm]/unit)                   0.1841          -99
      Number at maturity (no/unit)                         119.7          -99
      Tops weight at maturity (kg [dm]/ha)                  4275          -99
      By-product produced (stalk) at maturity (kg[dm]/ha    3027          -99
      Leaf area index, maximum                              1.90          -99
      Harvest index at maturity                            0.301          -99
      Grain N at maturity (kg/ha)                             23          -99
      Tops N at maturity (kg/ha)                              61          -99
      Stem N at maturity (kg/ha)                              37          -99
      Grain N at maturity (%)                                1.8          -99
      Tops weight at anthesis (kg [dm]/ha)                  2785          -99
      Tops N at anthesis (kg/ha)                              61          -99
      Leaf number per stem at maturity                     20.03          -99
      Emergence day (dap)                                      5          -99


*ENVIRONMENTAL AND STRESS FACTORS

 |-----Development Phase------|--------------------------------------Environment--------------------------------------|-----------------Stress-----------------|
                              |---------------Average--------------|-----Cumulative-----|--------Count of days--------|          (0=Min, 1=Max Stress)         |
                         Time  Temp  Temp  Temp Solar Photop                Evapo    Pot TMIN TMIN TMAX TMAX TMAX RAIN|----Water----|---Nitrogen--|-Phosphorus-|
                         Span   Max   Min  Mean   Rad  [day]    CO2   Rain  Trans     ET   <    <    >    >    >    >   Photo         Photo         Photo
                         days    邂    邂    邂 MJ/m2     hr    ppm     mm     mm     mm  0邂  2邂 30邂 32邂 34邂  0mm  synth Growth  synth Growth  synth Growth
----------------------------------------------------------------------------------------------------------------------------------------------------------------
 Emergence-End Juvenile    11  33.7  22.3  28.0  20.5   0.00  388.5  109.8   33.3   66.1    0    0   11   11    4    4  0.000  0.000  0.002  0.006  0.000  0.000
 End Juvenil-Floral Init    4  34.6  22.5  28.5  21.0   0.00  388.5    0.0    7.6   24.1    0    0    4    4    4    0  0.000  0.000  0.001  0.001  0.000  0.000
 Floral Init-End Lf Grow   29  34.4  22.4  28.4  19.9   0.00  388.8    2.0   59.8  157.0    0    0   27   24   19    3  0.388  0.517  0.000  0.000  0.000  0.000
 End Lf Grth-Beg Grn Fil    8  35.1  23.8  29.4  20.2   0.00  389.0    1.5    7.7   45.0    0    0    8    8    5    2  0.793  0.862  0.000  0.000  0.000  0.000
 Grain Filling Phase       37  34.4  22.9  28.7  19.7   7.29  389.1  495.5  125.6  208.0    0    0   36   32   24   13  0.274  0.330  0.000  0.000  0.000  0.000


 Planting to Harvest       96  34.2  22.6  28.4  19.9   3.12  388.9  608.8  258.6  537.9    0    0   93   83   56   22  0.289  0.355  0.000  0.001  0.000  0.000
----------------------------------------------------------------------------------------------------------------------------------------------------------------


*Resource Productivity
 Growing season length:  96 days 

 Precipitation during growing season       608.8 mm[rain]
   Dry Matter Productivity                  0.70 kg[DM]/m3[rain]          =    7.0 kg[DM]/ha per mm[rain]
   Yield Productivity                       0.21 kg[grain yield]/m3[rain] =    2.1 kg[yield]/ha per mm[rain]

 Evapotranspiration during growing season  258.6 mm[ET]
   Dry Matter Productivity                  1.65 kg[DM]/m3[ET]            =   16.5 kg[DM]/ha per mm[ET]
   Yield Productivity                       0.50 kg[grain yield]/m3[ET]   =    5.0 kg[yield]/ha per mm[ET]

 Transpiration during growing season       127.4 mm[EP]
   Dry Matter Productivity                  3.36 kg[DM]/m3[EP]            =   33.6 kg[DM]/ha per mm[EP]
   Yield Productivity                       1.01 kg[grain yield]/m3[EP]   =   10.1 kg[yield]/ha per mm[EP]

 N applied during growing season            162. kg[N applied]/ha
   Dry Matter Productivity                  26.4 kg[DM]/kg[N applied]
   Yield Productivity                        7.9 kg[yield]/kg[N applied]

 N uptake during growing season               69 kg[N uptake]/ha
   Dry Matter Productivity                  62.0 kg[DM]/kg[N uptake]
   Yield Productivity                       18.7 kg[yield]/kg[N uptake]

--------------------------------------------------------------------------------------------------------------

                     Maize YIELD :     1287 kg/ha    [Dry weight] 

**************************************************************************************************************

*DSSAT Cropping System Model Ver. 4.6.1.000 -release      OCT 02, 2017; 12:43:04
                                                                                
*RUN  32        : P12/31                    MZCER046 ANES2009   32              
 MODEL          : MZCER046 - Maize                                              
 EXPERIMENT     : ANES2009 MZ  MZ Analisis a침os de bajo rendimiento Espinal    
 DATA PATH      : C:\DSSAT46\maize\                                             
 TREATMENT 32   : P12/31                    MZCER046                            
                                                                                
                                                                                
 CROP           : Maize            CULTIVAR : FNC3056          ECOTYPE :IB0001  
 STARTING DATE  : DEC  1 2009                                                   
 PLANTING DATE  : DEC 31 2009        PLANTS/m2 :  6.2     ROW SPACING :  80.cm  
 WEATHER        : CNAT   2009                                                   
 SOIL           : CCESPI2017     TEXTURE : SL    -   Suelo Espinal Calibraci    
 SOIL INITIAL C : DEPTH:100cm EXTR. H2O: 83.6mm  NO3:100.0kg/ha  NH4: 72.3kg/ha 
 WATER BALANCE  : RAINFED                                                       
 IRRIGATION     : NOT IRRIGATED                                                 
 NITROGEN BAL.  : SOIL-N & N-UPTAKE SIMULATION; NO N-FIXATION                   
 N-FERTILIZER   :      162 kg/ha IN     6 APPLICATIONS                          
 RESIDUE/MANURE : INITIAL :     0 kg/ha ;       0 kg/ha IN     0 APPLICATIONS   
 ENVIRONM. OPT. : DAYL=    0.00  SRAD=    0.00  TMAX=    0.00  TMIN=    0.00    
                  RAIN=    0.00  CO2 =    0.00  DEW =    0.00  WIND=    0.00    
 SIMULATION OPT : WATER   :Y  NITROGEN:Y  N-FIX:N  PHOSPH :N  PESTS  :N         
                  PHOTO   :C  ET      :R  INFIL:S  HYDROL :R  SOM    :G         
                  CO2 388ppm  NSWIT   :1  EVAP :S  SOIL   :2  STEMP  :D         
 MANAGEMENT OPT : PLANTING:R  IRRIG   :N  FERT :D  RESIDUE:R  HARVEST:M         
                  WEATHER :M  TILLAGE :N                                        
                                                                                
*SUMMARY OF SOIL AND GENETIC INPUT PARAMETERS                                   
                                                                                
   SOIL LOWER UPPER   SAT  EXTR  INIT   ROOT   BULK     pH    NO3    NH4    ORG 
  DEPTH LIMIT LIMIT    SW    SW    SW   DIST   DENS                          C  
   cm   cm3/cm3    cm3/cm3    cm3/cm3         g/cm3         ugN/g  ugN/g     %  
------------------------------------------------------------------------------- 
  0-  5 0.160 0.252 0.376 0.092 0.252   1.00   1.69   6.60   8.90   4.51   0.45 
  5- 15 0.160 0.252 0.376 0.092 0.252   1.00   1.69   6.60   8.90   4.51   0.45 
 15- 30 0.160 0.252 0.376 0.092 0.252   1.00   1.69   6.60   8.90   4.51   0.45 
 30- 53 0.120 0.200 0.440 0.080 0.200   0.27   1.40   7.10   5.60   5.04   0.17 
 53- 77 0.120 0.200 0.440 0.080 0.200   0.27   1.40   7.10   5.60   5.04   0.17 
 77-100 0.120 0.200 0.440 0.080 0.200   0.27   1.40   7.10   5.60   5.04   0.17 
                                                                                
TOT-100  13.2  21.6  42.1   8.4  21.6  <--cm   -  kg/ha-->  100.0   72.3  39475 
SOIL ALBEDO    : 0.09      EVAPORATION LIMIT : 6.00         MIN. FACTOR  : 1.00 
RUNOFF CURVE # :76.00      DRAINAGE RATE     : 0.60         FERT. FACTOR : 1.00 
                                                                                
 Maize      CULTIVAR :CI0003-FNC3056            ECOTYPE :IB0001                 
 P1     : 233.00  P2     : 0.5000  P5     : 976.00                              
 G2     : 956.00  G3     :  7.500  PHINT  : 45.600                              


*SIMULATED CROP AND SOIL STATUS AT MAIN DEVELOPMENT STAGES

 RUN NO.    32     P12/31                  

        CROP GROWTH     BIOMASS         LEAF   CROP N     STRESS      STRESS                                           
   DATE  AGE STAGE        kg/ha    LAI   NUM  kg/ha  %   H2O  Nitr Phos1 Phos2  RSTG                                   
 ------  --- ----------   -----  -----  ----  ---  ---  ----  ----  ----  ----  ----                                   
  1 DEC    0 Start Sim        0   0.00   0.0    0  0.0  0.00  0.00  0.00  0.00     7
 31 DEC    0 Sowing           0   0.00   0.0    0  0.0  0.00  0.00  0.00  0.00     8
  1 JAN    1 Germinate        0   0.00   0.0    0  0.0  0.00  0.00  0.00  0.00     9
  5 JAN    5 Emergence       25   0.00   2.2    1  4.4  0.00  0.01  0.00  0.00     1
 16 JAN   16 End Juveni     154   0.31   7.9    5  3.2  0.00  0.00  0.00  0.00     2
 20 JAN   20 Floral Ini     365   0.65   9.9   13  3.7  0.00  0.00  0.00  0.00     3
 18 FEB   49 75% Silkin    2846   1.34  20.6   63  2.2  0.54  0.06  0.00  0.00     4
 26 FEB   57 Beg Gr Fil    2907   0.96  20.6   63  2.2  0.88  0.00  0.00  0.00     5
  4 APR   94 End Gr Fil    4212   0.68  20.6   63  1.5  0.23  0.00  0.00  0.00     6
  7 APR   97 Maturity      4212   0.68  20.6   63  1.5  0.00  0.00  0.00  0.00    10
  7 APR   97 Harvest       4212   0.68  20.6   63  1.5  0.00  0.00  0.00  0.00    10


*MAIN GROWTH AND DEVELOPMENT VARIABLES

@     VARIABLE                                         SIMULATED     MEASURED
      --------                                         ---------     --------
      Anthesis day (dap)                                      49          -99
      Physiological maturity day (dap)                        97          -99
      Yield at harvest maturity (kg [dm]/ha)                1219          -99
      Number at maturity (no/m2)                             619          -99
      Unit wt at maturity (g [dm]/unit)                   0.1969          -99
      Number at maturity (no/unit)                         109.2          -99
      Tops weight at maturity (kg [dm]/ha)                  4212          -99
      By-product produced (stalk) at maturity (kg[dm]/ha    3032          -99
      Leaf area index, maximum                              1.91          -99
      Harvest index at maturity                            0.289          -99
      Grain N at maturity (kg/ha)                             22          -99
      Tops N at maturity (kg/ha)                              63          -99
      Stem N at maturity (kg/ha)                              39          -99
      Grain N at maturity (%)                                1.8          -99
      Tops weight at anthesis (kg [dm]/ha)                  2811          -99
      Tops N at anthesis (kg/ha)                              63          -99
      Leaf number per stem at maturity                     20.58          -99
      Emergence day (dap)                                      5          -99


*ENVIRONMENTAL AND STRESS FACTORS

 |-----Development Phase------|--------------------------------------Environment--------------------------------------|-----------------Stress-----------------|
                              |---------------Average--------------|-----Cumulative-----|--------Count of days--------|          (0=Min, 1=Max Stress)         |
                         Time  Temp  Temp  Temp Solar Photop                Evapo    Pot TMIN TMIN TMAX TMAX TMAX RAIN|----Water----|---Nitrogen--|-Phosphorus-|
                         Span   Max   Min  Mean   Rad  [day]    CO2   Rain  Trans     ET   <    <    >    >    >    >   Photo         Photo         Photo
                         days    邂    邂    邂 MJ/m2     hr    ppm     mm     mm     mm  0邂  2邂 30邂 32邂 34邂  0mm  synth Growth  synth Growth  synth Growth
----------------------------------------------------------------------------------------------------------------------------------------------------------------
 Emergence-End Juvenile    11  34.3  22.7  28.5  20.8   0.00  388.6  106.7   34.3   67.7    0    0   11   11    8    3  0.000  0.000  0.002  0.006  0.000  0.000
 End Juvenil-Floral Init    4  34.9  22.7  28.8  20.7   0.00  388.8    0.0    7.0   24.0    0    0    4    4    3    0  0.000  0.000  0.001  0.003  0.000  0.000
 Floral Init-End Lf Grow   29  34.4  22.6  28.5  19.6   0.00  388.8    3.3   57.7  155.4    0    0   27   24   17    4  0.416  0.510  0.022  0.056  0.000  0.000
 End Lf Grth-Beg Grn Fil    8  34.9  23.6  29.2  20.2   0.00  389.0    0.2    6.5   45.4    0    0    8    7    5    1  0.821  0.881  0.000  0.000  0.000  0.000
 Grain Filling Phase       37  34.2  22.7  28.5  19.5   9.38  389.1  498.4  144.7  203.9    0    0   36   30   24   14  0.201  0.257  0.000  0.000  0.000  0.000


 Planting to Harvest       97  34.3  22.6  28.4  19.8   4.10  388.9  611.7  262.1  542.4    0    0   94   83   58   23  0.269  0.323  0.007  0.018  0.000  0.000
----------------------------------------------------------------------------------------------------------------------------------------------------------------


*Resource Productivity
 Growing season length:  97 days 

 Precipitation during growing season       611.7 mm[rain]
   Dry Matter Productivity                  0.69 kg[DM]/m3[rain]          =    6.9 kg[DM]/ha per mm[rain]
   Yield Productivity                       0.20 kg[grain yield]/m3[rain] =    2.0 kg[yield]/ha per mm[rain]

 Evapotranspiration during growing season  262.1 mm[ET]
   Dry Matter Productivity                  1.61 kg[DM]/m3[ET]            =   16.1 kg[DM]/ha per mm[ET]
   Yield Productivity                       0.47 kg[grain yield]/m3[ET]   =    4.7 kg[yield]/ha per mm[ET]

 Transpiration during growing season       137.5 mm[EP]
   Dry Matter Productivity                  3.06 kg[DM]/m3[EP]            =   30.6 kg[DM]/ha per mm[EP]
   Yield Productivity                       0.89 kg[grain yield]/m3[EP]   =    8.9 kg[yield]/ha per mm[EP]

 N applied during growing season            162. kg[N applied]/ha
   Dry Matter Productivity                  26.0 kg[DM]/kg[N applied]
   Yield Productivity                        7.5 kg[yield]/kg[N applied]

 N uptake during growing season               70 kg[N uptake]/ha
   Dry Matter Productivity                  60.2 kg[DM]/kg[N uptake]
   Yield Productivity                       17.4 kg[yield]/kg[N uptake]

--------------------------------------------------------------------------------------------------------------

                     Maize YIELD :     1219 kg/ha    [Dry weight] 

**************************************************************************************************************
