*SIMULATION OVERVIEW FILE

*DSSAT Cropping System Model Ver. 4.6.1.000 -release      OCT 24, 2017; 10:58:00
                                                                                
*RUN   1        : P07/14                    MZCER046 ANES1986    1              
 MODEL          : MZCER046 - Maize                                              
 EXPERIMENT     : ANES1986 MZ  Analisis a침os de bajo rendimiento Espinal       
 DATA PATH      : C:\DSSAT46\maize\                                             
 TREATMENT  1   : P07/14                    MZCER046                            
                                                                                
                                                                                
 CROP           : Maize            CULTIVAR : DK234            ECOTYPE :IB0001  
 STARTING DATE  : JUN 14 1986                                                   
 PLANTING DATE  : JUL 14 1986        PLANTS/m2 :  6.2     ROW SPACING :  80.cm  
 WEATHER        : CNAT   1986                                                   
 SOIL           : CCESPI2017     TEXTURE : SL    -   Suelo Espinal Calibraci    
 SOIL INITIAL C : DEPTH:100cm EXTR. H2O: 83.6mm  NO3:  0.0kg/ha  NH4:  0.0kg/ha 
 WATER BALANCE  : RAINFED                                                       
 IRRIGATION     : NOT IRRIGATED                                                 
 NITROGEN BAL.  : SOIL-N & N-UPTAKE SIMULATION; NO N-FIXATION                   
 N-FERTILIZER   :      162 kg/ha IN     6 APPLICATIONS                          
 RESIDUE/MANURE : INITIAL :     0 kg/ha ;       0 kg/ha IN     0 APPLICATIONS   
 ENVIRONM. OPT. : DAYL=    0.00  SRAD=    0.00  TMAX=    0.00  TMIN=    0.00    
                  RAIN=    0.00  CO2 =    0.00  DEW =    0.00  WIND=    0.00    
 SIMULATION OPT : WATER   :Y  NITROGEN:Y  N-FIX:N  PHOSPH :N  PESTS  :N         
                  PHOTO   :C  ET      :R  INFIL:S  HYDROL :R  SOM    :G         
                  CO2 347ppm  NSWIT   :1  EVAP :S  SOIL   :2  STEMP  :D         
 MANAGEMENT OPT : PLANTING:R  IRRIG   :N  FERT :D  RESIDUE:R  HARVEST:M         
                  WEATHER :M  TILLAGE :N                                        
                                                                                
*SUMMARY OF SOIL AND GENETIC INPUT PARAMETERS                                   
                                                                                
   SOIL LOWER UPPER   SAT  EXTR  INIT   ROOT   BULK     pH    NO3    NH4    ORG 
  DEPTH LIMIT LIMIT    SW    SW    SW   DIST   DENS                          C  
   cm   cm3/cm3    cm3/cm3    cm3/cm3         g/cm3         ugN/g  ugN/g     %  
------------------------------------------------------------------------------- 
  0-  5 0.160 0.252 0.376 0.092 0.252   1.00   1.69   6.60   0.00   0.00   0.45 
  5- 15 0.160 0.252 0.376 0.092 0.252   1.00   1.69   6.60   0.00   0.00   0.45 
 15- 30 0.160 0.252 0.376 0.092 0.252   1.00   1.69   6.60   0.00   0.00   0.45 
 30- 53 0.120 0.200 0.440 0.080 0.200   0.27   1.40   7.10   0.00   0.00   0.17 
 53- 77 0.120 0.200 0.440 0.080 0.200   0.27   1.40   7.10   0.00   0.00   0.17 
 77-100 0.120 0.200 0.440 0.080 0.200   0.27   1.40   7.10   0.00   0.00   0.17 
                                                                                
TOT-100  13.2  21.6  42.1   8.4  21.6  <--cm   -  kg/ha-->    0.0    0.0  39475 
SOIL ALBEDO    : 0.09      EVAPORATION LIMIT : 6.00         MIN. FACTOR  : 1.00 
RUNOFF CURVE # :76.00      DRAINAGE RATE     : 0.60         FERT. FACTOR : 1.00 
                                                                                
 Maize      CULTIVAR :CI0002-DK234              ECOTYPE :IB0001                 
 P1     : 300.00  P2     : 0.4000  P5     :1075.00                              
 G2     : 890.00  G3     :  7.750  PHINT  : 40.000                              


*SIMULATED CROP AND SOIL STATUS AT MAIN DEVELOPMENT STAGES

 RUN NO.     1     P07/14                  

        CROP GROWTH     BIOMASS         LEAF   CROP N     STRESS      STRESS                                           
   DATE  AGE STAGE        kg/ha    LAI   NUM  kg/ha  %   H2O  Nitr Phos1 Phos2  RSTG                                   
 ------  --- ----------   -----  -----  ----  ---  ---  ----  ----  ----  ----  ----                                   
 14 JUN    0 Start Sim        0   0.00   0.0    0  0.0  0.00  0.00  0.00  0.00     7
 14 JUL    0 Sowing           0   0.00   0.0    0  0.0  0.00  0.00  0.00  0.00     8
 15 JUL    1 Germinate        0   0.00   0.0    0  0.0  0.00  0.00  0.00  0.00     9
 19 JUL    5 Emergence       25   0.00   2.3    1  4.4  0.00  0.01  0.00  0.00     1
  3 AUG   20 End Juveni     307   0.54  10.6    6  2.0  0.18  0.09  0.00  0.00     2
 11 AUG   28 Floral Ini     568   0.71  14.8    8  1.3  0.54  0.73  0.00  0.00     3
 15 SEP   63 75% Silkin    2740   0.85  30.0   72  2.6  0.66  0.14  0.00  0.00     4
 23 SEP   71 Beg Gr Fil    2651   0.61  30.0   72  2.7  0.82  0.00  0.00  0.00     5
 10 NOV  119 End Gr Fil    4163   0.61  30.0   72  1.7  0.00  0.00  0.00  0.00     6
 12 NOV  121 Maturity      4163   0.61  30.0   72  1.7  0.00  0.00  0.00  0.00    10
 12 NOV  121 Harvest       4163   0.61  30.0   72  1.7  0.00  0.00  0.00  0.00    10


*MAIN GROWTH AND DEVELOPMENT VARIABLES

@     VARIABLE                                         SIMULATED     MEASURED
      --------                                         ---------     --------
      Anthesis day (dap)                                      63          -99
      Physiological maturity day (dap)                       121          -99
      Yield at harvest maturity (kg [dm]/ha)                1238          -99
      Number at maturity (no/m2)                             340          -99
      Unit wt at maturity (g [dm]/unit)                   0.3645          -99
      Number at maturity (no/unit)                          68.3          -99
      Tops weight at maturity (kg [dm]/ha)                  4163          -99
      By-product produced (stalk) at maturity (kg[dm]/ha    2969          -99
      Leaf area index, maximum                              1.54          -99
      Harvest index at maturity                            0.297          -99
      Grain N at maturity (kg/ha)                             21          -99
      Tops N at maturity (kg/ha)                              72          -99
      Stem N at maturity (kg/ha)                              45          -99
      Grain N at maturity (%)                                1.7          -99
      Tops weight at anthesis (kg [dm]/ha)                  2751          -99
      Tops N at anthesis (kg/ha)                              72          -99
      Leaf number per stem at maturity                     29.95          -99
      Emergence day (dap)                                      5          -99


*ENVIRONMENTAL AND STRESS FACTORS

 |-----Development Phase------|--------------------------------------Environment--------------------------------------|-----------------Stress-----------------|
                              |---------------Average--------------|-----Cumulative-----|--------Count of days--------|          (0=Min, 1=Max Stress)         |
                         Time  Temp  Temp  Temp Solar Photop                Evapo    Pot TMIN TMIN TMAX TMAX TMAX RAIN|----Water----|---Nitrogen--|-Phosphorus-|
                         Span   Max   Min  Mean   Rad  [day]    CO2   Rain  Trans     ET   <    <    >    >    >    >   Photo         Photo         Photo
                         days    邂    邂    邂 MJ/m2     hr    ppm     mm     mm     mm  0邂  2邂 30邂 32邂 34邂  0mm  synth Growth  synth Growth  synth Growth
----------------------------------------------------------------------------------------------------------------------------------------------------------------
 Emergence-End Juvenile    15  34.3  20.8  27.5  19.5  24.00  347.2    0.0   10.8   84.2    0    0   14   14   10    0  0.045  0.146  0.023  0.056  0.000  0.000
 End Juvenil-Floral Init    8  36.1  22.3  29.2  21.7  24.00  347.2    0.0   12.7   51.1    0    0    8    8    8    0  0.308  0.538  0.434  0.695  0.000  0.000
 Floral Init-End Lf Grow   35  34.6  22.6  28.6  19.4  20.98  347.3   48.3   68.9  191.0    0    0   35   29   20    9  0.550  0.650  0.118  0.165  0.000  0.000
 End Lf Grth-Beg Grn Fil    8  36.5  24.5  30.5  21.1  12.77  347.4   20.8    4.7   51.9    0    0    8    8    8    4  0.913  0.942  0.000  0.000  0.000  0.000
 Grain Filling Phase       48  30.4  21.3  25.9  17.6   3.19  347.5  326.6  205.1  226.7    0    0   26    6    1   33  0.000  0.000  0.000  0.000  0.000  0.000


 Planting to Harvest      121  33.1  21.9  27.5  18.9  13.73  347.4  395.7  309.7  640.4    0    0   98   71   49   46  0.245  0.304  0.066  0.101  0.000  0.000
----------------------------------------------------------------------------------------------------------------------------------------------------------------


*Resource Productivity
 Growing season length: 121 days 

 Precipitation during growing season       395.7 mm[rain]
   Dry Matter Productivity                  1.05 kg[DM]/m3[rain]          =   10.5 kg[DM]/ha per mm[rain]
   Yield Productivity                       0.31 kg[grain yield]/m3[rain] =    3.1 kg[yield]/ha per mm[rain]

 Evapotranspiration during growing season  309.7 mm[ET]
   Dry Matter Productivity                  1.34 kg[DM]/m3[ET]            =   13.4 kg[DM]/ha per mm[ET]
   Yield Productivity                       0.40 kg[grain yield]/m3[ET]   =    4.0 kg[yield]/ha per mm[ET]

 Transpiration during growing season       143.2 mm[EP]
   Dry Matter Productivity                  2.91 kg[DM]/m3[EP]            =   29.1 kg[DM]/ha per mm[EP]
   Yield Productivity                       0.86 kg[grain yield]/m3[EP]   =    8.6 kg[yield]/ha per mm[EP]

 N applied during growing season            162. kg[N applied]/ha
   Dry Matter Productivity                  25.7 kg[DM]/kg[N applied]
   Yield Productivity                        7.6 kg[yield]/kg[N applied]

 N uptake during growing season               76 kg[N uptake]/ha
   Dry Matter Productivity                  54.8 kg[DM]/kg[N uptake]
   Yield Productivity                       16.3 kg[yield]/kg[N uptake]

--------------------------------------------------------------------------------------------------------------

                     Maize YIELD :     1238 kg/ha    [Dry weight] 

**************************************************************************************************************

*DSSAT Cropping System Model Ver. 4.6.1.000 -release      OCT 24, 2017; 10:58:00
                                                                                
*RUN   2        : P07/19                    MZCER046 ANES1986    2              
 MODEL          : MZCER046 - Maize                                              
 EXPERIMENT     : ANES1986 MZ  Analisis a침os de bajo rendimiento Espinal       
 DATA PATH      : C:\DSSAT46\maize\                                             
 TREATMENT  2   : P07/19                    MZCER046                            
                                                                                
                                                                                
 CROP           : Maize            CULTIVAR : DK234            ECOTYPE :IB0001  
 STARTING DATE  : JUN 19 1986                                                   
 PLANTING DATE  : JUL 19 1986        PLANTS/m2 :  6.2     ROW SPACING :  80.cm  
 WEATHER        : CNAT   1986                                                   
 SOIL           : CCESPI2017     TEXTURE : SL    -   Suelo Espinal Calibraci    
 SOIL INITIAL C : DEPTH:100cm EXTR. H2O: 83.6mm  NO3:  0.0kg/ha  NH4:  0.0kg/ha 
 WATER BALANCE  : RAINFED                                                       
 IRRIGATION     : NOT IRRIGATED                                                 
 NITROGEN BAL.  : SOIL-N & N-UPTAKE SIMULATION; NO N-FIXATION                   
 N-FERTILIZER   :      162 kg/ha IN     6 APPLICATIONS                          
 RESIDUE/MANURE : INITIAL :     0 kg/ha ;       0 kg/ha IN     0 APPLICATIONS   
 ENVIRONM. OPT. : DAYL=    0.00  SRAD=    0.00  TMAX=    0.00  TMIN=    0.00    
                  RAIN=    0.00  CO2 =    0.00  DEW =    0.00  WIND=    0.00    
 SIMULATION OPT : WATER   :Y  NITROGEN:Y  N-FIX:N  PHOSPH :N  PESTS  :N         
                  PHOTO   :C  ET      :R  INFIL:S  HYDROL :R  SOM    :G         
                  CO2 347ppm  NSWIT   :1  EVAP :S  SOIL   :2  STEMP  :D         
 MANAGEMENT OPT : PLANTING:R  IRRIG   :N  FERT :D  RESIDUE:R  HARVEST:M         
                  WEATHER :M  TILLAGE :N                                        
                                                                                
*SUMMARY OF SOIL AND GENETIC INPUT PARAMETERS                                   
                                                                                
   SOIL LOWER UPPER   SAT  EXTR  INIT   ROOT   BULK     pH    NO3    NH4    ORG 
  DEPTH LIMIT LIMIT    SW    SW    SW   DIST   DENS                          C  
   cm   cm3/cm3    cm3/cm3    cm3/cm3         g/cm3         ugN/g  ugN/g     %  
------------------------------------------------------------------------------- 
  0-  5 0.160 0.252 0.376 0.092 0.252   1.00   1.69   6.60   0.00   0.00   0.45 
  5- 15 0.160 0.252 0.376 0.092 0.252   1.00   1.69   6.60   0.00   0.00   0.45 
 15- 30 0.160 0.252 0.376 0.092 0.252   1.00   1.69   6.60   0.00   0.00   0.45 
 30- 53 0.120 0.200 0.440 0.080 0.200   0.27   1.40   7.10   0.00   0.00   0.17 
 53- 77 0.120 0.200 0.440 0.080 0.200   0.27   1.40   7.10   0.00   0.00   0.17 
 77-100 0.120 0.200 0.440 0.080 0.200   0.27   1.40   7.10   0.00   0.00   0.17 
                                                                                
TOT-100  13.2  21.6  42.1   8.4  21.6  <--cm   -  kg/ha-->    0.0    0.0  39475 
SOIL ALBEDO    : 0.09      EVAPORATION LIMIT : 6.00         MIN. FACTOR  : 1.00 
RUNOFF CURVE # :76.00      DRAINAGE RATE     : 0.60         FERT. FACTOR : 1.00 
                                                                                
 Maize      CULTIVAR :CI0002-DK234              ECOTYPE :IB0001                 
 P1     : 300.00  P2     : 0.4000  P5     :1075.00                              
 G2     : 890.00  G3     :  7.750  PHINT  : 40.000                              


*SIMULATED CROP AND SOIL STATUS AT MAIN DEVELOPMENT STAGES

 RUN NO.     2     P07/19                  

        CROP GROWTH     BIOMASS         LEAF   CROP N     STRESS      STRESS                                           
   DATE  AGE STAGE        kg/ha    LAI   NUM  kg/ha  %   H2O  Nitr Phos1 Phos2  RSTG                                   
 ------  --- ----------   -----  -----  ----  ---  ---  ----  ----  ----  ----  ----                                   
 19 JUN    0 Start Sim        0   0.00   0.0    0  0.0  0.00  0.00  0.00  0.00     7
 19 JUL    0 Sowing           0   0.00   0.0    0  0.0  0.00  0.00  0.00  0.00     8
 20 JUL    1 Germinate        0   0.00   0.0    0  0.0  0.00  0.00  0.00  0.00     9
 24 JUL    5 Emergence       25   0.01   2.3    1  4.4  0.00  0.01  0.00  0.00     1
  7 AUG   19 End Juveni     301   0.53  10.3    6  2.0  0.13  0.09  0.00  0.00     2
 15 AUG   27 Floral Ini     555   0.70  14.4    8  1.4  0.38  0.72  0.00  0.00     3
 18 SEP   61 75% Silkin    2687   0.85  29.2   69  2.6  0.68  0.05  0.00  0.00     4
 26 SEP   69 Beg Gr Fil    3059   0.72  29.2   69  2.3  0.44  0.00  0.00  0.00     5
 13 NOV  117 End Gr Fil    6386   0.72  29.2   84  1.3  0.00  0.00  0.00  0.00     6
 15 NOV  119 Maturity      6386   0.72  29.2   84  1.3  0.00  0.00  0.00  0.00    10
 15 NOV  119 Harvest       6386   0.72  29.2   84  1.3  0.00  0.00  0.00  0.00    10


*MAIN GROWTH AND DEVELOPMENT VARIABLES

@     VARIABLE                                         SIMULATED     MEASURED
      --------                                         ---------     --------
      Anthesis day (dap)                                      61          -99
      Physiological maturity day (dap)                       119          -99
      Yield at harvest maturity (kg [dm]/ha)                3389          -99
      Number at maturity (no/m2)                             935          -99
      Unit wt at maturity (g [dm]/unit)                   0.3623          -99
      Number at maturity (no/unit)                         150.9          -99
      Tops weight at maturity (kg [dm]/ha)                  6386          -99
      By-product produced (stalk) at maturity (kg[dm]/ha    3041          -99
      Leaf area index, maximum                              1.69          -99
      Harvest index at maturity                            0.531          -99
      Grain N at maturity (kg/ha)                             59          -99
      Tops N at maturity (kg/ha)                              84          -99
      Stem N at maturity (kg/ha)                              26          -99
      Grain N at maturity (%)                                1.7          -99
      Tops weight at anthesis (kg [dm]/ha)                  2689          -99
      Tops N at anthesis (kg/ha)                              69          -99
      Leaf number per stem at maturity                     29.21          -99
      Emergence day (dap)                                      5          -99


*ENVIRONMENTAL AND STRESS FACTORS

 |-----Development Phase------|--------------------------------------Environment--------------------------------------|-----------------Stress-----------------|
                              |---------------Average--------------|-----Cumulative-----|--------Count of days--------|          (0=Min, 1=Max Stress)         |
                         Time  Temp  Temp  Temp Solar Photop                Evapo    Pot TMIN TMIN TMAX TMAX TMAX RAIN|----Water----|---Nitrogen--|-Phosphorus-|
                         Span   Max   Min  Mean   Rad  [day]    CO2   Rain  Trans     ET   <    <    >    >    >    >   Photo         Photo         Photo
                         days    邂    邂    邂 MJ/m2     hr    ppm     mm     mm     mm  0邂  2邂 30邂 32邂 34邂  0mm  synth Growth  synth Growth  synth Growth
----------------------------------------------------------------------------------------------------------------------------------------------------------------
 Emergence-End Juvenile    14  35.0  21.5  28.2  19.6  24.00  347.2    0.0   10.2   80.2    0    0   14   14   12    0  0.004  0.083  0.023  0.056  0.000  0.000
 End Juvenil-Floral Init    8  35.7  21.7  28.7  19.9  24.00  347.2    0.0   12.4   46.6    0    0    8    8    7    0  0.234  0.407  0.420  0.683  0.000  0.000
 Floral Init-End Lf Grow   34  34.8  22.8  28.8  20.3  19.98  347.3   48.7   67.3  194.7    0    0   34   28   20   10  0.597  0.667  0.050  0.071  0.000  0.000
 End Lf Grth-Beg Grn Fil    8  34.8  23.4  29.1  19.8  11.74  347.4   74.2   20.7   46.0    0    0    8    7    5    5  0.518  0.554  0.000  0.000  0.000  0.000
 Grain Filling Phase       48  30.4  21.4  25.9  17.5   2.51  347.5  272.8  197.3  223.6    0    0   26    6    1   31  0.000  0.000  0.000  0.000  0.000  0.000


 Planting to Harvest      119  33.0  22.0  27.5  18.9  12.96  347.4  395.7  314.6  628.5    0    0   96   68   47   46  0.222  0.265  0.045  0.073  0.000  0.000
----------------------------------------------------------------------------------------------------------------------------------------------------------------


*Resource Productivity
 Growing season length: 119 days 

 Precipitation during growing season       395.7 mm[rain]
   Dry Matter Productivity                  1.61 kg[DM]/m3[rain]          =   16.1 kg[DM]/ha per mm[rain]
   Yield Productivity                       0.86 kg[grain yield]/m3[rain] =    8.6 kg[yield]/ha per mm[rain]

 Evapotranspiration during growing season  314.6 mm[ET]
   Dry Matter Productivity                  2.03 kg[DM]/m3[ET]            =   20.3 kg[DM]/ha per mm[ET]
   Yield Productivity                       1.08 kg[grain yield]/m3[ET]   =   10.8 kg[yield]/ha per mm[ET]

 Transpiration during growing season       158.6 mm[EP]
   Dry Matter Productivity                  4.03 kg[DM]/m3[EP]            =   40.3 kg[DM]/ha per mm[EP]
   Yield Productivity                       2.14 kg[grain yield]/m3[EP]   =   21.4 kg[yield]/ha per mm[EP]

 N applied during growing season            162. kg[N applied]/ha
   Dry Matter Productivity                  39.4 kg[DM]/kg[N applied]
   Yield Productivity                       20.9 kg[yield]/kg[N applied]

 N uptake during growing season               96 kg[N uptake]/ha
   Dry Matter Productivity                  66.5 kg[DM]/kg[N uptake]
   Yield Productivity                       35.3 kg[yield]/kg[N uptake]

--------------------------------------------------------------------------------------------------------------

                     Maize YIELD :     3389 kg/ha    [Dry weight] 

**************************************************************************************************************

*DSSAT Cropping System Model Ver. 4.6.1.000 -release      OCT 24, 2017; 10:58:00
                                                                                
*RUN   3        : P07/24                    MZCER046 ANES1986    3              
 MODEL          : MZCER046 - Maize                                              
 EXPERIMENT     : ANES1986 MZ  Analisis a침os de bajo rendimiento Espinal       
 DATA PATH      : C:\DSSAT46\maize\                                             
 TREATMENT  3   : P07/24                    MZCER046                            
                                                                                
                                                                                
 CROP           : Maize            CULTIVAR : DK234            ECOTYPE :IB0001  
 STARTING DATE  : JUN 24 1986                                                   
 PLANTING DATE  : JUL 24 1986        PLANTS/m2 :  6.2     ROW SPACING :  80.cm  
 WEATHER        : CNAT   1986                                                   
 SOIL           : CCESPI2017     TEXTURE : SL    -   Suelo Espinal Calibraci    
 SOIL INITIAL C : DEPTH:100cm EXTR. H2O: 83.6mm  NO3:  0.0kg/ha  NH4:  0.0kg/ha 
 WATER BALANCE  : RAINFED                                                       
 IRRIGATION     : NOT IRRIGATED                                                 
 NITROGEN BAL.  : SOIL-N & N-UPTAKE SIMULATION; NO N-FIXATION                   
 N-FERTILIZER   :      162 kg/ha IN     6 APPLICATIONS                          
 RESIDUE/MANURE : INITIAL :     0 kg/ha ;       0 kg/ha IN     0 APPLICATIONS   
 ENVIRONM. OPT. : DAYL=    0.00  SRAD=    0.00  TMAX=    0.00  TMIN=    0.00    
                  RAIN=    0.00  CO2 =    0.00  DEW =    0.00  WIND=    0.00    
 SIMULATION OPT : WATER   :Y  NITROGEN:Y  N-FIX:N  PHOSPH :N  PESTS  :N         
                  PHOTO   :C  ET      :R  INFIL:S  HYDROL :R  SOM    :G         
                  CO2 347ppm  NSWIT   :1  EVAP :S  SOIL   :2  STEMP  :D         
 MANAGEMENT OPT : PLANTING:R  IRRIG   :N  FERT :D  RESIDUE:R  HARVEST:M         
                  WEATHER :M  TILLAGE :N                                        
                                                                                
*SUMMARY OF SOIL AND GENETIC INPUT PARAMETERS                                   
                                                                                
   SOIL LOWER UPPER   SAT  EXTR  INIT   ROOT   BULK     pH    NO3    NH4    ORG 
  DEPTH LIMIT LIMIT    SW    SW    SW   DIST   DENS                          C  
   cm   cm3/cm3    cm3/cm3    cm3/cm3         g/cm3         ugN/g  ugN/g     %  
------------------------------------------------------------------------------- 
  0-  5 0.160 0.252 0.376 0.092 0.252   1.00   1.69   6.60   0.00   0.00   0.45 
  5- 15 0.160 0.252 0.376 0.092 0.252   1.00   1.69   6.60   0.00   0.00   0.45 
 15- 30 0.160 0.252 0.376 0.092 0.252   1.00   1.69   6.60   0.00   0.00   0.45 
 30- 53 0.120 0.200 0.440 0.080 0.200   0.27   1.40   7.10   0.00   0.00   0.17 
 53- 77 0.120 0.200 0.440 0.080 0.200   0.27   1.40   7.10   0.00   0.00   0.17 
 77-100 0.120 0.200 0.440 0.080 0.200   0.27   1.40   7.10   0.00   0.00   0.17 
                                                                                
TOT-100  13.2  21.6  42.1   8.4  21.6  <--cm   -  kg/ha-->    0.0    0.0  39475 
SOIL ALBEDO    : 0.09      EVAPORATION LIMIT : 6.00         MIN. FACTOR  : 1.00 
RUNOFF CURVE # :76.00      DRAINAGE RATE     : 0.60         FERT. FACTOR : 1.00 
                                                                                
 Maize      CULTIVAR :CI0002-DK234              ECOTYPE :IB0001                 
 P1     : 300.00  P2     : 0.4000  P5     :1075.00                              
 G2     : 890.00  G3     :  7.750  PHINT  : 40.000                              


*SIMULATED CROP AND SOIL STATUS AT MAIN DEVELOPMENT STAGES

 RUN NO.     3     P07/24                  

        CROP GROWTH     BIOMASS         LEAF   CROP N     STRESS      STRESS                                           
   DATE  AGE STAGE        kg/ha    LAI   NUM  kg/ha  %   H2O  Nitr Phos1 Phos2  RSTG                                   
 ------  --- ----------   -----  -----  ----  ---  ---  ----  ----  ----  ----  ----                                   
 24 JUN    0 Start Sim        0   0.00   0.0    0  0.0  0.00  0.00  0.00  0.00     7
 24 JUL    0 Sowing           0   0.00   0.0    0  0.0  0.00  0.00  0.00  0.00     8
 25 JUL    1 Germinate        0   0.00   0.0    0  0.0  0.00  0.00  0.00  0.00     9
 29 JUL    5 Emergence       25   0.00   2.3    1  4.4  0.00  0.01  0.00  0.00     1
 12 AUG   19 End Juveni     297   0.53  10.4    6  2.0  0.15  0.08  0.00  0.00     2
 19 AUG   26 Floral Ini     678   0.96  13.8   25  3.6  0.25  0.48  0.00  0.00     3
 21 SEP   59 75% Silkin    2294   0.75  28.3   61  2.7  0.75  0.00  0.00  0.00     4
 30 SEP   68 Beg Gr Fil    2968   0.72  28.3   61  2.1  0.10  0.00  0.00  0.00     5
 16 NOV  115 End Gr Fil    7014   0.72  28.3   94  1.3  0.00  0.00  0.00  0.00     6
 18 NOV  117 Maturity      7014   0.72  28.3   94  1.3  0.00  0.00  0.00  0.00    10
 18 NOV  117 Harvest       7014   0.72  28.3   94  1.3  0.00  0.00  0.00  0.00    10


*MAIN GROWTH AND DEVELOPMENT VARIABLES

@     VARIABLE                                         SIMULATED     MEASURED
      --------                                         ---------     --------
      Anthesis day (dap)                                      59          -99
      Physiological maturity day (dap)                       117          -99
      Yield at harvest maturity (kg [dm]/ha)                4137          -99
      Number at maturity (no/m2)                            1170          -99
      Unit wt at maturity (g [dm]/unit)                   0.3536          -99
      Number at maturity (no/unit)                         188.7          -99
      Tops weight at maturity (kg [dm]/ha)                  7014          -99
      By-product produced (stalk) at maturity (kg[dm]/ha    2920          -99
      Leaf area index, maximum                              1.71          -99
      Harvest index at maturity                            0.590          -99
      Grain N at maturity (kg/ha)                             72          -99
      Tops N at maturity (kg/ha)                              94          -99
      Stem N at maturity (kg/ha)                              22          -99
      Grain N at maturity (%)                                1.7          -99
      Tops weight at anthesis (kg [dm]/ha)                  2294          -99
      Tops N at anthesis (kg/ha)                              61          -99
      Leaf number per stem at maturity                     28.33          -99
      Emergence day (dap)                                      5          -99


*ENVIRONMENTAL AND STRESS FACTORS

 |-----Development Phase------|--------------------------------------Environment--------------------------------------|-----------------Stress-----------------|
                              |---------------Average--------------|-----Cumulative-----|--------Count of days--------|          (0=Min, 1=Max Stress)         |
                         Time  Temp  Temp  Temp Solar Photop                Evapo    Pot TMIN TMIN TMAX TMAX TMAX RAIN|----Water----|---Nitrogen--|-Phosphorus-|
                         Span   Max   Min  Mean   Rad  [day]    CO2   Rain  Trans     ET   <    <    >    >    >    >   Photo         Photo         Photo
                         days    邂    邂    邂 MJ/m2     hr    ppm     mm     mm     mm  0邂  2邂 30邂 32邂 34邂  0mm  synth Growth  synth Growth  synth Growth
----------------------------------------------------------------------------------------------------------------------------------------------------------------
 Emergence-End Juvenile    14  35.5  21.6  28.5  20.3  24.00  347.2    0.0   10.0   84.9    0    0   14   14   13    0  0.021  0.131  0.019  0.048  0.000  0.000
 End Juvenil-Floral Init    7  33.1  21.6  27.4  16.0  24.00  347.3   19.1   13.2   30.6    0    0    7    4    2    2  0.113  0.279  0.312  0.540  0.000  0.000
 Floral Init-End Lf Grow   33  35.3  23.2  29.3  20.8  18.82  347.3   29.8   59.3  197.3    0    0   33   30   23    9  0.673  0.722  0.000  0.000  0.000  0.000
 End Lf Grth-Beg Grn Fil    9  31.5  21.6  26.6  16.8  10.54  347.4  114.9   32.8   40.9    0    0    6    5    2    8  0.186  0.198  0.000  0.000  0.000  0.000
 Grain Filling Phase       47  30.7  21.6  26.1  17.9   1.74  347.5  231.9  189.2  224.5    0    0   28    7    1   27  0.000  0.000  0.000  0.000  0.000  0.000


 Planting to Harvest      117  33.0  22.1  27.5  19.0  12.15  347.4  395.7  311.6  620.5    0    0   95   67   46   46  0.213  0.251  0.021  0.038  0.000  0.000
----------------------------------------------------------------------------------------------------------------------------------------------------------------


*Resource Productivity
 Growing season length: 117 days 

 Precipitation during growing season       395.7 mm[rain]
   Dry Matter Productivity                  1.77 kg[DM]/m3[rain]          =   17.7 kg[DM]/ha per mm[rain]
   Yield Productivity                       1.05 kg[grain yield]/m3[rain] =   10.5 kg[yield]/ha per mm[rain]

 Evapotranspiration during growing season  311.6 mm[ET]
   Dry Matter Productivity                  2.25 kg[DM]/m3[ET]            =   22.5 kg[DM]/ha per mm[ET]
   Yield Productivity                       1.33 kg[grain yield]/m3[ET]   =   13.3 kg[yield]/ha per mm[ET]

 Transpiration during growing season       156.9 mm[EP]
   Dry Matter Productivity                  4.47 kg[DM]/m3[EP]            =   44.7 kg[DM]/ha per mm[EP]
   Yield Productivity                       2.64 kg[grain yield]/m3[EP]   =   26.4 kg[yield]/ha per mm[EP]

 N applied during growing season            162. kg[N applied]/ha
   Dry Matter Productivity                  43.3 kg[DM]/kg[N applied]
   Yield Productivity                       25.5 kg[yield]/kg[N applied]

 N uptake during growing season              104 kg[N uptake]/ha
   Dry Matter Productivity                  67.4 kg[DM]/kg[N uptake]
   Yield Productivity                       39.8 kg[yield]/kg[N uptake]

--------------------------------------------------------------------------------------------------------------

                     Maize YIELD :     4137 kg/ha    [Dry weight] 

**************************************************************************************************************

*DSSAT Cropping System Model Ver. 4.6.1.000 -release      OCT 24, 2017; 10:58:01
                                                                                
*RUN   4        : P07/29                    MZCER046 ANES1986    4              
 MODEL          : MZCER046 - Maize                                              
 EXPERIMENT     : ANES1986 MZ  Analisis a침os de bajo rendimiento Espinal       
 DATA PATH      : C:\DSSAT46\maize\                                             
 TREATMENT  4   : P07/29                    MZCER046                            
                                                                                
                                                                                
 CROP           : Maize            CULTIVAR : DK234            ECOTYPE :IB0001  
 STARTING DATE  : JUN 29 1986                                                   
 PLANTING DATE  : JUL 29 1986        PLANTS/m2 :  6.2     ROW SPACING :  80.cm  
 WEATHER        : CNAT   1986                                                   
 SOIL           : CCESPI2017     TEXTURE : SL    -   Suelo Espinal Calibraci    
 SOIL INITIAL C : DEPTH:100cm EXTR. H2O: 83.6mm  NO3:  0.0kg/ha  NH4:  0.0kg/ha 
 WATER BALANCE  : RAINFED                                                       
 IRRIGATION     : NOT IRRIGATED                                                 
 NITROGEN BAL.  : SOIL-N & N-UPTAKE SIMULATION; NO N-FIXATION                   
 N-FERTILIZER   :      162 kg/ha IN     6 APPLICATIONS                          
 RESIDUE/MANURE : INITIAL :     0 kg/ha ;       0 kg/ha IN     0 APPLICATIONS   
 ENVIRONM. OPT. : DAYL=    0.00  SRAD=    0.00  TMAX=    0.00  TMIN=    0.00    
                  RAIN=    0.00  CO2 =    0.00  DEW =    0.00  WIND=    0.00    
 SIMULATION OPT : WATER   :Y  NITROGEN:Y  N-FIX:N  PHOSPH :N  PESTS  :N         
                  PHOTO   :C  ET      :R  INFIL:S  HYDROL :R  SOM    :G         
                  CO2 347ppm  NSWIT   :1  EVAP :S  SOIL   :2  STEMP  :D         
 MANAGEMENT OPT : PLANTING:R  IRRIG   :N  FERT :D  RESIDUE:R  HARVEST:M         
                  WEATHER :M  TILLAGE :N                                        
                                                                                
*SUMMARY OF SOIL AND GENETIC INPUT PARAMETERS                                   
                                                                                
   SOIL LOWER UPPER   SAT  EXTR  INIT   ROOT   BULK     pH    NO3    NH4    ORG 
  DEPTH LIMIT LIMIT    SW    SW    SW   DIST   DENS                          C  
   cm   cm3/cm3    cm3/cm3    cm3/cm3         g/cm3         ugN/g  ugN/g     %  
------------------------------------------------------------------------------- 
  0-  5 0.160 0.252 0.376 0.092 0.252   1.00   1.69   6.60   0.00   0.00   0.45 
  5- 15 0.160 0.252 0.376 0.092 0.252   1.00   1.69   6.60   0.00   0.00   0.45 
 15- 30 0.160 0.252 0.376 0.092 0.252   1.00   1.69   6.60   0.00   0.00   0.45 
 30- 53 0.120 0.200 0.440 0.080 0.200   0.27   1.40   7.10   0.00   0.00   0.17 
 53- 77 0.120 0.200 0.440 0.080 0.200   0.27   1.40   7.10   0.00   0.00   0.17 
 77-100 0.120 0.200 0.440 0.080 0.200   0.27   1.40   7.10   0.00   0.00   0.17 
                                                                                
TOT-100  13.2  21.6  42.1   8.4  21.6  <--cm   -  kg/ha-->    0.0    0.0  39475 
SOIL ALBEDO    : 0.09      EVAPORATION LIMIT : 6.00         MIN. FACTOR  : 1.00 
RUNOFF CURVE # :76.00      DRAINAGE RATE     : 0.60         FERT. FACTOR : 1.00 
                                                                                
 Maize      CULTIVAR :CI0002-DK234              ECOTYPE :IB0001                 
 P1     : 300.00  P2     : 0.4000  P5     :1075.00                              
 G2     : 890.00  G3     :  7.750  PHINT  : 40.000                              


*SIMULATED CROP AND SOIL STATUS AT MAIN DEVELOPMENT STAGES

 RUN NO.     4     P07/29                  

        CROP GROWTH     BIOMASS         LEAF   CROP N     STRESS      STRESS                                           
   DATE  AGE STAGE        kg/ha    LAI   NUM  kg/ha  %   H2O  Nitr Phos1 Phos2  RSTG                                   
 ------  --- ----------   -----  -----  ----  ---  ---  ----  ----  ----  ----  ----                                   
 29 JUN    0 Start Sim        0   0.00   0.0    0  0.0  0.00  0.00  0.00  0.00     7
 29 JUL    0 Sowing           0   0.00   0.0    0  0.0  0.00  0.00  0.00  0.00     8
 30 JUL    1 Germinate        0   0.00   0.0    0  0.0  0.00  0.00  0.00  0.00     9
  3 AUG    5 Emergence       25   0.01   2.3    1  4.4  0.00  0.01  0.00  0.00     1
 17 AUG   19 End Juveni     293   0.52  10.4   10  3.5  0.17  0.07  0.00  0.00     2
 24 AUG   26 Floral Ini     958   1.36  13.8   36  3.8  0.14  0.00  0.00  0.00     3
 26 SEP   59 75% Silkin    2592   0.89  28.1   55  2.1  0.72  0.00  0.00  0.00     4
  5 OCT   68 Beg Gr Fil    3512   0.89  28.1   55  1.6  0.00  0.00  0.00  0.00     5
 21 NOV  115 End Gr Fil    8647   0.89  28.1  115  1.3  0.00  0.00  0.00  0.00     6
 23 NOV  117 Maturity      8647   0.89  28.1  115  1.3  0.00  0.00  0.00  0.00    10
 23 NOV  117 Harvest       8647   0.89  28.1  115  1.3  0.00  0.00  0.00  0.00    10


*MAIN GROWTH AND DEVELOPMENT VARIABLES

@     VARIABLE                                         SIMULATED     MEASURED
      --------                                         ---------     --------
      Anthesis day (dap)                                      59          -99
      Physiological maturity day (dap)                       117          -99
      Yield at harvest maturity (kg [dm]/ha)                5251          -99
      Number at maturity (no/m2)                            1496          -99
      Unit wt at maturity (g [dm]/unit)                   0.3510          -99
      Number at maturity (no/unit)                         241.3          -99
      Tops weight at maturity (kg [dm]/ha)                  8647          -99
      By-product produced (stalk) at maturity (kg[dm]/ha    3441          -99
      Leaf area index, maximum                              1.56          -99
      Harvest index at maturity                            0.607          -99
      Grain N at maturity (kg/ha)                             91          -99
      Tops N at maturity (kg/ha)                             115          -99
      Stem N at maturity (kg/ha)                              24          -99
      Grain N at maturity (%)                                1.7          -99
      Tops weight at anthesis (kg [dm]/ha)                  2483          -99
      Tops N at anthesis (kg/ha)                              55          -99
      Leaf number per stem at maturity                     28.13          -99
      Emergence day (dap)                                      5          -99


*ENVIRONMENTAL AND STRESS FACTORS

 |-----Development Phase------|--------------------------------------Environment--------------------------------------|-----------------Stress-----------------|
                              |---------------Average--------------|-----Cumulative-----|--------Count of days--------|          (0=Min, 1=Max Stress)         |
                         Time  Temp  Temp  Temp Solar Photop                Evapo    Pot TMIN TMIN TMAX TMAX TMAX RAIN|----Water----|---Nitrogen--|-Phosphorus-|
                         Span   Max   Min  Mean   Rad  [day]    CO2   Rain  Trans     ET   <    <    >    >    >    >   Photo         Photo         Photo
                         days    邂    邂    邂 MJ/m2     hr    ppm     mm     mm     mm  0邂  2邂 30邂 32邂 34邂  0mm  synth Growth  synth Growth  synth Growth
----------------------------------------------------------------------------------------------------------------------------------------------------------------
 Emergence-End Juvenile    14  35.1  22.2  28.6  18.5  24.00  347.2    0.7    8.3   78.1    0    0   14   12   11    1  0.016  0.124  0.016  0.040  0.000  0.000
 End Juvenil-Floral Init    7  33.4  21.9  27.6  20.4  24.00  347.3   29.6   28.8   39.6    0    0    7    5    2    4  0.071  0.133  0.027  0.068  0.000  0.000
 Floral Init-End Lf Grow   33  35.3  23.1  29.2  20.6  16.89  347.4   92.6   58.4  195.5    0    0   33   30   23   10  0.691  0.744  0.000  0.000  0.000  0.000
 End Lf Grth-Beg Grn Fil    9  30.0  21.1  25.5  15.8   8.74  347.4   87.3   37.4   37.5    0    0    4    2    1    7  0.000  0.000  0.000  0.000  0.000  0.000
 Grain Filling Phase       47  30.9  21.7  26.3  18.2   0.89  347.6  187.5  184.1  226.5    0    0   30    9    1   25  0.000  0.000  0.000  0.000  0.000  0.000


 Planting to Harvest      117  32.9  22.1  27.5  19.0  11.13  347.4  397.7  323.8  615.9    0    0   95   64   43   47  0.201  0.233  0.004  0.009  0.000  0.000
----------------------------------------------------------------------------------------------------------------------------------------------------------------


*Resource Productivity
 Growing season length: 117 days 

 Precipitation during growing season       397.7 mm[rain]
   Dry Matter Productivity                  2.17 kg[DM]/m3[rain]          =   21.7 kg[DM]/ha per mm[rain]
   Yield Productivity                       1.32 kg[grain yield]/m3[rain] =   13.2 kg[yield]/ha per mm[rain]

 Evapotranspiration during growing season  323.8 mm[ET]
   Dry Matter Productivity                  2.67 kg[DM]/m3[ET]            =   26.7 kg[DM]/ha per mm[ET]
   Yield Productivity                       1.62 kg[grain yield]/m3[ET]   =   16.2 kg[yield]/ha per mm[ET]

 Transpiration during growing season       178.7 mm[EP]
   Dry Matter Productivity                  4.84 kg[DM]/m3[EP]            =   48.4 kg[DM]/ha per mm[EP]
   Yield Productivity                       2.94 kg[grain yield]/m3[EP]   =   29.4 kg[yield]/ha per mm[EP]

 N applied during growing season            162. kg[N applied]/ha
   Dry Matter Productivity                  53.4 kg[DM]/kg[N applied]
   Yield Productivity                       32.4 kg[yield]/kg[N applied]

 N uptake during growing season              127 kg[N uptake]/ha
   Dry Matter Productivity                  68.1 kg[DM]/kg[N uptake]
   Yield Productivity                       41.3 kg[yield]/kg[N uptake]

--------------------------------------------------------------------------------------------------------------

                     Maize YIELD :     5251 kg/ha    [Dry weight] 

**************************************************************************************************************

*DSSAT Cropping System Model Ver. 4.6.1.000 -release      OCT 24, 2017; 10:58:01
                                                                                
*RUN   5        : P08/03                    MZCER046 ANES1986    5              
 MODEL          : MZCER046 - Maize                                              
 EXPERIMENT     : ANES1986 MZ  Analisis a침os de bajo rendimiento Espinal       
 DATA PATH      : C:\DSSAT46\maize\                                             
 TREATMENT  5   : P08/03                    MZCER046                            
                                                                                
                                                                                
 CROP           : Maize            CULTIVAR : DK234            ECOTYPE :IB0001  
 STARTING DATE  : JUL  4 1986                                                   
 PLANTING DATE  : AUG  3 1986        PLANTS/m2 :  6.2     ROW SPACING :  80.cm  
 WEATHER        : CNAT   1986                                                   
 SOIL           : CCESPI2017     TEXTURE : SL    -   Suelo Espinal Calibraci    
 SOIL INITIAL C : DEPTH:100cm EXTR. H2O: 83.6mm  NO3:  0.0kg/ha  NH4:  0.0kg/ha 
 WATER BALANCE  : RAINFED                                                       
 IRRIGATION     : NOT IRRIGATED                                                 
 NITROGEN BAL.  : SOIL-N & N-UPTAKE SIMULATION; NO N-FIXATION                   
 N-FERTILIZER   :      162 kg/ha IN     6 APPLICATIONS                          
 RESIDUE/MANURE : INITIAL :     0 kg/ha ;       0 kg/ha IN     0 APPLICATIONS   
 ENVIRONM. OPT. : DAYL=    0.00  SRAD=    0.00  TMAX=    0.00  TMIN=    0.00    
                  RAIN=    0.00  CO2 =    0.00  DEW =    0.00  WIND=    0.00    
 SIMULATION OPT : WATER   :Y  NITROGEN:Y  N-FIX:N  PHOSPH :N  PESTS  :N         
                  PHOTO   :C  ET      :R  INFIL:S  HYDROL :R  SOM    :G         
                  CO2 347ppm  NSWIT   :1  EVAP :S  SOIL   :2  STEMP  :D         
 MANAGEMENT OPT : PLANTING:R  IRRIG   :N  FERT :D  RESIDUE:R  HARVEST:M         
                  WEATHER :M  TILLAGE :N                                        
                                                                                
*SUMMARY OF SOIL AND GENETIC INPUT PARAMETERS                                   
                                                                                
   SOIL LOWER UPPER   SAT  EXTR  INIT   ROOT   BULK     pH    NO3    NH4    ORG 
  DEPTH LIMIT LIMIT    SW    SW    SW   DIST   DENS                          C  
   cm   cm3/cm3    cm3/cm3    cm3/cm3         g/cm3         ugN/g  ugN/g     %  
------------------------------------------------------------------------------- 
  0-  5 0.160 0.252 0.376 0.092 0.252   1.00   1.69   6.60   0.00   0.00   0.45 
  5- 15 0.160 0.252 0.376 0.092 0.252   1.00   1.69   6.60   0.00   0.00   0.45 
 15- 30 0.160 0.252 0.376 0.092 0.252   1.00   1.69   6.60   0.00   0.00   0.45 
 30- 53 0.120 0.200 0.440 0.080 0.200   0.27   1.40   7.10   0.00   0.00   0.17 
 53- 77 0.120 0.200 0.440 0.080 0.200   0.27   1.40   7.10   0.00   0.00   0.17 
 77-100 0.120 0.200 0.440 0.080 0.200   0.27   1.40   7.10   0.00   0.00   0.17 
                                                                                
TOT-100  13.2  21.6  42.1   8.4  21.6  <--cm   -  kg/ha-->    0.0    0.0  39475 
SOIL ALBEDO    : 0.09      EVAPORATION LIMIT : 6.00         MIN. FACTOR  : 1.00 
RUNOFF CURVE # :76.00      DRAINAGE RATE     : 0.60         FERT. FACTOR : 1.00 
                                                                                
 Maize      CULTIVAR :CI0002-DK234              ECOTYPE :IB0001                 
 P1     : 300.00  P2     : 0.4000  P5     :1075.00                              
 G2     : 890.00  G3     :  7.750  PHINT  : 40.000                              


*SIMULATED CROP AND SOIL STATUS AT MAIN DEVELOPMENT STAGES

 RUN NO.     5     P08/03                  

        CROP GROWTH     BIOMASS         LEAF   CROP N     STRESS      STRESS                                           
   DATE  AGE STAGE        kg/ha    LAI   NUM  kg/ha  %   H2O  Nitr Phos1 Phos2  RSTG                                   
 ------  --- ----------   -----  -----  ----  ---  ---  ----  ----  ----  ----  ----                                   
  4 JUL    0 Start Sim        0   0.00   0.0    0  0.0  0.00  0.00  0.00  0.00     7
  3 AUG    0 Sowing           0   0.00   0.0    0  0.0  0.00  0.00  0.00  0.00     8
  4 AUG    1 Germinate        0   0.00   0.0    0  0.0  0.00  0.00  0.00  0.00     9
  8 AUG    5 Emergence       25   0.00   2.3    1  4.4  0.00  0.01  0.00  0.00     1
 22 AUG   19 End Juveni     378   0.67  10.1   12  3.1  0.04  0.00  0.00  0.00     2
 28 AUG   25 Floral Ini     931   1.33  13.3   36  3.8  0.19  0.00  0.00  0.00     3
 29 SEP   57 75% Silkin    2963   1.14  27.5   63  2.1  0.63  0.00  0.00  0.00     4
  9 OCT   67 Beg Gr Fil    4526   1.14  27.5   64  1.4  0.00  0.00  0.00  0.00     5
 24 NOV  113 End Gr Fil   11105   0.94  27.5  145  1.3  0.01  0.00  0.00  0.00     6
 27 NOV  116 Maturity     11105   0.94  27.5  145  1.3  0.00  0.00  0.00  0.00    10
 27 NOV  116 Harvest      11105   0.94  27.5  145  1.3  0.00  0.00  0.00  0.00    10


*MAIN GROWTH AND DEVELOPMENT VARIABLES

@     VARIABLE                                         SIMULATED     MEASURED
      --------                                         ---------     --------
      Anthesis day (dap)                                      57          -99
      Physiological maturity day (dap)                       116          -99
      Yield at harvest maturity (kg [dm]/ha)                6729          -99
      Number at maturity (no/m2)                            1975          -99
      Unit wt at maturity (g [dm]/unit)                   0.3406          -99
      Number at maturity (no/unit)                         318.6          -99
      Tops weight at maturity (kg [dm]/ha)                 11105          -99
      By-product produced (stalk) at maturity (kg[dm]/ha    4422          -99
      Leaf area index, maximum                              1.52          -99
      Harvest index at maturity                            0.606          -99
      Grain N at maturity (kg/ha)                            117          -99
      Tops N at maturity (kg/ha)                             145          -99
      Stem N at maturity (kg/ha)                              28          -99
      Grain N at maturity (%)                                1.7          -99
      Tops weight at anthesis (kg [dm]/ha)                  2836          -99
      Tops N at anthesis (kg/ha)                              61          -99
      Leaf number per stem at maturity                     27.50          -99
      Emergence day (dap)                                      5          -99


*ENVIRONMENTAL AND STRESS FACTORS

 |-----Development Phase------|--------------------------------------Environment--------------------------------------|-----------------Stress-----------------|
                              |---------------Average--------------|-----Cumulative-----|--------Count of days--------|          (0=Min, 1=Max Stress)         |
                         Time  Temp  Temp  Temp Solar Photop                Evapo    Pot TMIN TMIN TMAX TMAX TMAX RAIN|----Water----|---Nitrogen--|-Phosphorus-|
                         Span   Max   Min  Mean   Rad  [day]    CO2   Rain  Trans     ET   <    <    >    >    >    >   Photo         Photo         Photo
                         days    邂    邂    邂 MJ/m2     hr    ppm     mm     mm     mm  0邂  2邂 30邂 32邂 34邂  0mm  synth Growth  synth Growth  synth Growth
----------------------------------------------------------------------------------------------------------------------------------------------------------------
 Emergence-End Juvenile    14  34.1  21.7  27.9  18.0  24.00  347.3   30.3   19.2   74.8    0    0   14   10    7    5  0.006  0.038  0.002  0.005  0.000  0.000
 End Juvenil-Floral Init    6  34.5  22.3  28.4  23.2  24.00  347.3    7.4   28.2   39.0    0    0    6    6    3    2  0.011  0.063  0.000  0.001  0.000  0.000
 Floral Init-End Lf Grow   32  34.8  23.2  29.0  19.7  15.34  347.4  125.0   61.3  180.7    0    0   30   27   21   11  0.594  0.656  0.000  0.000  0.000  0.000
 End Lf Grth-Beg Grn Fil   10  30.7  20.8  25.8  18.6   7.36  347.4   98.3   48.3   48.4    0    0    7    2    1    8  0.000  0.000  0.000  0.000  0.000  0.000
 Grain Filling Phase       46  31.0  21.9  26.4  18.1   0.38  347.6  158.7  180.3  217.0    0    0   29    9    2   22  0.000  0.014  0.000  0.000  0.000  0.000


 Planting to Harvest      116  32.8  22.2  27.5  18.9  10.19  347.4  420.7  349.5  606.1    0    0   93   60   39   49  0.165  0.194  0.000  0.001  0.000  0.000
----------------------------------------------------------------------------------------------------------------------------------------------------------------


*Resource Productivity
 Growing season length: 116 days 

 Precipitation during growing season       420.7 mm[rain]
   Dry Matter Productivity                  2.64 kg[DM]/m3[rain]          =   26.4 kg[DM]/ha per mm[rain]
   Yield Productivity                       1.60 kg[grain yield]/m3[rain] =   16.0 kg[yield]/ha per mm[rain]

 Evapotranspiration during growing season  349.5 mm[ET]
   Dry Matter Productivity                  3.18 kg[DM]/m3[ET]            =   31.8 kg[DM]/ha per mm[ET]
   Yield Productivity                       1.93 kg[grain yield]/m3[ET]   =   19.3 kg[yield]/ha per mm[ET]

 Transpiration during growing season       209.3 mm[EP]
   Dry Matter Productivity                  5.31 kg[DM]/m3[EP]            =   53.1 kg[DM]/ha per mm[EP]
   Yield Productivity                       3.21 kg[grain yield]/m3[EP]   =   32.1 kg[yield]/ha per mm[EP]

 N applied during growing season            162. kg[N applied]/ha
   Dry Matter Productivity                  68.5 kg[DM]/kg[N applied]
   Yield Productivity                       41.5 kg[yield]/kg[N applied]

 N uptake during growing season              157 kg[N uptake]/ha
   Dry Matter Productivity                  70.7 kg[DM]/kg[N uptake]
   Yield Productivity                       42.9 kg[yield]/kg[N uptake]

--------------------------------------------------------------------------------------------------------------

                     Maize YIELD :     6729 kg/ha    [Dry weight] 

**************************************************************************************************************

*DSSAT Cropping System Model Ver. 4.6.1.000 -release      OCT 24, 2017; 10:58:01
                                                                                
*RUN   6        : P08/08                    MZCER046 ANES1986    6              
 MODEL          : MZCER046 - Maize                                              
 EXPERIMENT     : ANES1986 MZ  Analisis a침os de bajo rendimiento Espinal       
 DATA PATH      : C:\DSSAT46\maize\                                             
 TREATMENT  6   : P08/08                    MZCER046                            
                                                                                
                                                                                
 CROP           : Maize            CULTIVAR : DK234            ECOTYPE :IB0001  
 STARTING DATE  : JUL  9 1986                                                   
 PLANTING DATE  : AUG  8 1986        PLANTS/m2 :  6.2     ROW SPACING :  80.cm  
 WEATHER        : CNAT   1986                                                   
 SOIL           : CCESPI2017     TEXTURE : SL    -   Suelo Espinal Calibraci    
 SOIL INITIAL C : DEPTH:100cm EXTR. H2O: 83.6mm  NO3:  0.0kg/ha  NH4:  0.0kg/ha 
 WATER BALANCE  : RAINFED                                                       
 IRRIGATION     : NOT IRRIGATED                                                 
 NITROGEN BAL.  : SOIL-N & N-UPTAKE SIMULATION; NO N-FIXATION                   
 N-FERTILIZER   :      162 kg/ha IN     6 APPLICATIONS                          
 RESIDUE/MANURE : INITIAL :     0 kg/ha ;       0 kg/ha IN     0 APPLICATIONS   
 ENVIRONM. OPT. : DAYL=    0.00  SRAD=    0.00  TMAX=    0.00  TMIN=    0.00    
                  RAIN=    0.00  CO2 =    0.00  DEW =    0.00  WIND=    0.00    
 SIMULATION OPT : WATER   :Y  NITROGEN:Y  N-FIX:N  PHOSPH :N  PESTS  :N         
                  PHOTO   :C  ET      :R  INFIL:S  HYDROL :R  SOM    :G         
                  CO2 347ppm  NSWIT   :1  EVAP :S  SOIL   :2  STEMP  :D         
 MANAGEMENT OPT : PLANTING:R  IRRIG   :N  FERT :D  RESIDUE:R  HARVEST:M         
                  WEATHER :M  TILLAGE :N                                        
                                                                                
*SUMMARY OF SOIL AND GENETIC INPUT PARAMETERS                                   
                                                                                
   SOIL LOWER UPPER   SAT  EXTR  INIT   ROOT   BULK     pH    NO3    NH4    ORG 
  DEPTH LIMIT LIMIT    SW    SW    SW   DIST   DENS                          C  
   cm   cm3/cm3    cm3/cm3    cm3/cm3         g/cm3         ugN/g  ugN/g     %  
------------------------------------------------------------------------------- 
  0-  5 0.160 0.252 0.376 0.092 0.252   1.00   1.69   6.60   0.00   0.00   0.45 
  5- 15 0.160 0.252 0.376 0.092 0.252   1.00   1.69   6.60   0.00   0.00   0.45 
 15- 30 0.160 0.252 0.376 0.092 0.252   1.00   1.69   6.60   0.00   0.00   0.45 
 30- 53 0.120 0.200 0.440 0.080 0.200   0.27   1.40   7.10   0.00   0.00   0.17 
 53- 77 0.120 0.200 0.440 0.080 0.200   0.27   1.40   7.10   0.00   0.00   0.17 
 77-100 0.120 0.200 0.440 0.080 0.200   0.27   1.40   7.10   0.00   0.00   0.17 
                                                                                
TOT-100  13.2  21.6  42.1   8.4  21.6  <--cm   -  kg/ha-->    0.0    0.0  39475 
SOIL ALBEDO    : 0.09      EVAPORATION LIMIT : 6.00         MIN. FACTOR  : 1.00 
RUNOFF CURVE # :76.00      DRAINAGE RATE     : 0.60         FERT. FACTOR : 1.00 
                                                                                
 Maize      CULTIVAR :CI0002-DK234              ECOTYPE :IB0001                 
 P1     : 300.00  P2     : 0.4000  P5     :1075.00                              
 G2     : 890.00  G3     :  7.750  PHINT  : 40.000                              


*SIMULATED CROP AND SOIL STATUS AT MAIN DEVELOPMENT STAGES

 RUN NO.     6     P08/08                  

        CROP GROWTH     BIOMASS         LEAF   CROP N     STRESS      STRESS                                           
   DATE  AGE STAGE        kg/ha    LAI   NUM  kg/ha  %   H2O  Nitr Phos1 Phos2  RSTG                                   
 ------  --- ----------   -----  -----  ----  ---  ---  ----  ----  ----  ----  ----                                   
  9 JUL    0 Start Sim        0   0.00   0.0    0  0.0  0.00  0.00  0.00  0.00     7
  8 AUG    0 Sowing           0   0.00   0.0    0  0.0  0.00  0.00  0.00  0.00     8
  9 AUG    1 Germinate        0   0.00   0.0    0  0.0  0.00  0.00  0.00  0.00     9
 13 AUG    5 Emergence       25   0.00   2.2    1  4.4  0.00  0.01  0.00  0.00     1
 27 AUG   19 End Juveni     370   0.66  10.0   12  3.3  0.00  0.00  0.00  0.00     2
  1 SEP   24 Floral Ini     609   0.89  12.7   24  4.0  0.55  0.00  0.00  0.00     3
  3 OCT   56 75% Silkin    2820   1.11  26.2   58  2.1  0.53  0.00  0.00  0.00     4
 12 OCT   65 Beg Gr Fil    4134   1.11  26.2   59  1.4  0.00  0.00  0.00  0.00     5
 27 NOV  111 End Gr Fil   10364   0.81  26.2  137  1.3  0.01  0.00  0.00  0.00     6
 30 NOV  114 Maturity     10364   0.81  26.2  137  1.3  0.00  0.00  0.00  0.00    10
 30 NOV  114 Harvest      10364   0.81  26.2  137  1.3  0.00  0.00  0.00  0.00    10


*MAIN GROWTH AND DEVELOPMENT VARIABLES

@     VARIABLE                                         SIMULATED     MEASURED
      --------                                         ---------     --------
      Anthesis day (dap)                                      56          -99
      Physiological maturity day (dap)                       114          -99
      Yield at harvest maturity (kg [dm]/ha)                6375          -99
      Number at maturity (no/m2)                            1874          -99
      Unit wt at maturity (g [dm]/unit)                   0.3402          -99
      Number at maturity (no/unit)                         302.2          -99
      Tops weight at maturity (kg [dm]/ha)                 10364          -99
      By-product produced (stalk) at maturity (kg[dm]/ha    4025          -99
      Leaf area index, maximum                              1.25          -99
      Harvest index at maturity                            0.615          -99
      Grain N at maturity (kg/ha)                            111          -99
      Tops N at maturity (kg/ha)                             137          -99
      Stem N at maturity (kg/ha)                              26          -99
      Grain N at maturity (%)                                1.7          -99
      Tops weight at anthesis (kg [dm]/ha)                  2663          -99
      Tops N at anthesis (kg/ha)                              56          -99
      Leaf number per stem at maturity                     26.22          -99
      Emergence day (dap)                                      5          -99


*ENVIRONMENTAL AND STRESS FACTORS

 |-----Development Phase------|--------------------------------------Environment--------------------------------------|-----------------Stress-----------------|
                              |---------------Average--------------|-----Cumulative-----|--------Count of days--------|          (0=Min, 1=Max Stress)         |
                         Time  Temp  Temp  Temp Solar Photop                Evapo    Pot TMIN TMIN TMAX TMAX TMAX RAIN|----Water----|---Nitrogen--|-Phosphorus-|
                         Span   Max   Min  Mean   Rad  [day]    CO2   Rain  Trans     ET   <    <    >    >    >    >   Photo         Photo         Photo
                         days    邂    邂    邂 MJ/m2     hr    ppm     mm     mm     mm  0邂  2邂 30邂 32邂 34邂  0mm  synth Growth  synth Growth  synth Growth
----------------------------------------------------------------------------------------------------------------------------------------------------------------
 Emergence-End Juvenile    14  33.3  21.9  27.6  19.2  24.00  347.3   37.7   34.6   78.0    0    0   14   10    4    7  0.000  0.000  0.002  0.005  0.000  0.000
 End Juvenil-Floral Init    5  35.9  23.3  29.6  22.7  22.71  347.3    0.0   12.7   33.4    0    0    5    5    5    0  0.258  0.398  0.000  0.000  0.000  0.000
 Floral Init-End Lf Grow   32  34.2  22.8  28.5  19.1  13.61  347.4  139.8   72.9  176.6    0    0   28   24   18   13  0.509  0.558  0.000  0.000  0.000  0.000
 End Lf Grth-Beg Grn Fil    9  30.6  21.5  26.0  17.8   5.79  347.4   83.9   41.6   41.7    0    0    6    1    0    7  0.000  0.000  0.000  0.000  0.000  0.000
 Grain Filling Phase       46  31.1  21.9  26.5  18.3   0.10  347.6  159.3  178.1  220.6    0    0   30   10    2   22  0.000  0.011  0.000  0.000  0.000  0.000


 Planting to Harvest      114  32.6  22.2  27.4  18.9   9.32  347.5  422.1  349.9  596.1    0    0   91   56   34   50  0.154  0.179  0.000  0.001  0.000  0.000
----------------------------------------------------------------------------------------------------------------------------------------------------------------


*Resource Productivity
 Growing season length: 114 days 

 Precipitation during growing season       422.1 mm[rain]
   Dry Matter Productivity                  2.46 kg[DM]/m3[rain]          =   24.6 kg[DM]/ha per mm[rain]
   Yield Productivity                       1.51 kg[grain yield]/m3[rain] =   15.1 kg[yield]/ha per mm[rain]

 Evapotranspiration during growing season  349.9 mm[ET]
   Dry Matter Productivity                  2.96 kg[DM]/m3[ET]            =   29.6 kg[DM]/ha per mm[ET]
   Yield Productivity                       1.82 kg[grain yield]/m3[ET]   =   18.2 kg[yield]/ha per mm[ET]

 Transpiration during growing season       198.7 mm[EP]
   Dry Matter Productivity                  5.22 kg[DM]/m3[EP]            =   52.2 kg[DM]/ha per mm[EP]
   Yield Productivity                       3.21 kg[grain yield]/m3[EP]   =   32.1 kg[yield]/ha per mm[EP]

 N applied during growing season            162. kg[N applied]/ha
   Dry Matter Productivity                  64.0 kg[DM]/kg[N applied]
   Yield Productivity                       39.4 kg[yield]/kg[N applied]

 N uptake during growing season              149 kg[N uptake]/ha
   Dry Matter Productivity                  69.6 kg[DM]/kg[N uptake]
   Yield Productivity                       42.8 kg[yield]/kg[N uptake]

--------------------------------------------------------------------------------------------------------------

                     Maize YIELD :     6375 kg/ha    [Dry weight] 

**************************************************************************************************************

*DSSAT Cropping System Model Ver. 4.6.1.000 -release      OCT 24, 2017; 10:58:01
                                                                                
*RUN   7        : P08/13                    MZCER046 ANES1986    7              
 MODEL          : MZCER046 - Maize                                              
 EXPERIMENT     : ANES1986 MZ  Analisis a침os de bajo rendimiento Espinal       
 DATA PATH      : C:\DSSAT46\maize\                                             
 TREATMENT  7   : P08/13                    MZCER046                            
                                                                                
                                                                                
 CROP           : Maize            CULTIVAR : DK234            ECOTYPE :IB0001  
 STARTING DATE  : JUL 14 1986                                                   
 PLANTING DATE  : AUG 13 1986        PLANTS/m2 :  6.2     ROW SPACING :  80.cm  
 WEATHER        : CNAT   1986                                                   
 SOIL           : CCESPI2017     TEXTURE : SL    -   Suelo Espinal Calibraci    
 SOIL INITIAL C : DEPTH:100cm EXTR. H2O: 83.6mm  NO3:  0.0kg/ha  NH4:  0.0kg/ha 
 WATER BALANCE  : RAINFED                                                       
 IRRIGATION     : NOT IRRIGATED                                                 
 NITROGEN BAL.  : SOIL-N & N-UPTAKE SIMULATION; NO N-FIXATION                   
 N-FERTILIZER   :      162 kg/ha IN     6 APPLICATIONS                          
 RESIDUE/MANURE : INITIAL :     0 kg/ha ;       0 kg/ha IN     0 APPLICATIONS   
 ENVIRONM. OPT. : DAYL=    0.00  SRAD=    0.00  TMAX=    0.00  TMIN=    0.00    
                  RAIN=    0.00  CO2 =    0.00  DEW =    0.00  WIND=    0.00    
 SIMULATION OPT : WATER   :Y  NITROGEN:Y  N-FIX:N  PHOSPH :N  PESTS  :N         
                  PHOTO   :C  ET      :R  INFIL:S  HYDROL :R  SOM    :G         
                  CO2 347ppm  NSWIT   :1  EVAP :S  SOIL   :2  STEMP  :D         
 MANAGEMENT OPT : PLANTING:R  IRRIG   :N  FERT :D  RESIDUE:R  HARVEST:M         
                  WEATHER :M  TILLAGE :N                                        
                                                                                
*SUMMARY OF SOIL AND GENETIC INPUT PARAMETERS                                   
                                                                                
   SOIL LOWER UPPER   SAT  EXTR  INIT   ROOT   BULK     pH    NO3    NH4    ORG 
  DEPTH LIMIT LIMIT    SW    SW    SW   DIST   DENS                          C  
   cm   cm3/cm3    cm3/cm3    cm3/cm3         g/cm3         ugN/g  ugN/g     %  
------------------------------------------------------------------------------- 
  0-  5 0.160 0.252 0.376 0.092 0.252   1.00   1.69   6.60   0.00   0.00   0.45 
  5- 15 0.160 0.252 0.376 0.092 0.252   1.00   1.69   6.60   0.00   0.00   0.45 
 15- 30 0.160 0.252 0.376 0.092 0.252   1.00   1.69   6.60   0.00   0.00   0.45 
 30- 53 0.120 0.200 0.440 0.080 0.200   0.27   1.40   7.10   0.00   0.00   0.17 
 53- 77 0.120 0.200 0.440 0.080 0.200   0.27   1.40   7.10   0.00   0.00   0.17 
 77-100 0.120 0.200 0.440 0.080 0.200   0.27   1.40   7.10   0.00   0.00   0.17 
                                                                                
TOT-100  13.2  21.6  42.1   8.4  21.6  <--cm   -  kg/ha-->    0.0    0.0  39475 
SOIL ALBEDO    : 0.09      EVAPORATION LIMIT : 6.00         MIN. FACTOR  : 1.00 
RUNOFF CURVE # :76.00      DRAINAGE RATE     : 0.60         FERT. FACTOR : 1.00 
                                                                                
 Maize      CULTIVAR :CI0002-DK234              ECOTYPE :IB0001                 
 P1     : 300.00  P2     : 0.4000  P5     :1075.00                              
 G2     : 890.00  G3     :  7.750  PHINT  : 40.000                              


*SIMULATED CROP AND SOIL STATUS AT MAIN DEVELOPMENT STAGES

 RUN NO.     7     P08/13                  

        CROP GROWTH     BIOMASS         LEAF   CROP N     STRESS      STRESS                                           
   DATE  AGE STAGE        kg/ha    LAI   NUM  kg/ha  %   H2O  Nitr Phos1 Phos2  RSTG                                   
 ------  --- ----------   -----  -----  ----  ---  ---  ----  ----  ----  ----  ----                                   
 14 JUL    0 Start Sim        0   0.00   0.0    0  0.0  0.00  0.00  0.00  0.00     7
 13 AUG    0 Sowing           0   0.00   0.0    0  0.0  0.00  0.00  0.00  0.00     8
 14 AUG    1 Germinate        0   0.00   0.0    0  0.0  0.00  0.00  0.00  0.00     9
 18 AUG    5 Emergence       25   0.00   2.2    1  4.4  0.00  0.01  0.00  0.00     1
  1 SEP   19 End Juveni     339   0.61  10.3   12  3.5  0.08  0.00  0.00  0.00     2
  6 SEP   24 Floral Ini     674   0.99  12.9   27  4.0  0.32  0.00  0.00  0.00     3
  8 OCT   56 75% Silkin    3767   1.54  26.5   76  2.0  0.44  0.00  0.00  0.00     4
 18 OCT   66 Beg Gr Fil    5678   1.54  26.5   76  1.3  0.00  0.00  0.00  0.00     5
  2 DEC  111 End Gr Fil   12899   0.91  26.5  153  1.2  0.12  0.04  0.00  0.00     6
  5 DEC  114 Maturity     12899   0.91  26.5  153  1.2  0.78  0.41  0.00  0.00    10
  5 DEC  114 Harvest      12899   0.91  26.5  153  1.2  0.00  0.00  0.00  0.00    10


*MAIN GROWTH AND DEVELOPMENT VARIABLES

@     VARIABLE                                         SIMULATED     MEASURED
      --------                                         ---------     --------
      Anthesis day (dap)                                      56          -99
      Physiological maturity day (dap)                       114          -99
      Yield at harvest maturity (kg [dm]/ha)                7498          -99
      Number at maturity (no/m2)                            2340          -99
      Unit wt at maturity (g [dm]/unit)                   0.3204          -99
      Number at maturity (no/unit)                         377.4          -99
      Tops weight at maturity (kg [dm]/ha)                 12899          -99
      By-product produced (stalk) at maturity (kg[dm]/ha    5442          -99
      Leaf area index, maximum                              1.54          -99
      Harvest index at maturity                            0.581          -99
      Grain N at maturity (kg/ha)                            128          -99
      Tops N at maturity (kg/ha)                             153          -99
      Stem N at maturity (kg/ha)                              25          -99
      Grain N at maturity (%)                                1.7          -99
      Tops weight at anthesis (kg [dm]/ha)                  3541          -99
      Tops N at anthesis (kg/ha)                              73          -99
      Leaf number per stem at maturity                     26.49          -99
      Emergence day (dap)                                      5          -99


*ENVIRONMENTAL AND STRESS FACTORS

 |-----Development Phase------|--------------------------------------Environment--------------------------------------|-----------------Stress-----------------|
                              |---------------Average--------------|-----Cumulative-----|--------Count of days--------|          (0=Min, 1=Max Stress)         |
                         Time  Temp  Temp  Temp Solar Photop                Evapo    Pot TMIN TMIN TMAX TMAX TMAX RAIN|----Water----|---Nitrogen--|-Phosphorus-|
                         Span   Max   Min  Mean   Rad  [day]    CO2   Rain  Trans     ET   <    <    >    >    >    >   Photo         Photo         Photo
                         days    邂    邂    邂 MJ/m2     hr    ppm     mm     mm     mm  0邂  2邂 30邂 32邂 34邂  0mm  synth Growth  synth Growth  synth Growth
----------------------------------------------------------------------------------------------------------------------------------------------------------------
 Emergence-End Juvenile    14  34.3  22.6  28.4  21.6  23.54  347.3   18.6   38.2   90.7    0    0   14   12    8    5  0.021  0.062  0.003  0.006  0.000  0.000
 End Juvenil-Floral Init    5  33.3  22.2  27.8  19.8  18.90  347.3   10.6   15.4   27.9    0    0    5    3    1    2  0.127  0.194  0.000  0.001  0.000  0.000
 Floral Init-End Lf Grow   32  33.8  22.6  28.2  19.0  11.72  347.4  212.3   84.9  173.6    0    0   27   22   17   16  0.433  0.466  0.000  0.000  0.000  0.000
 End Lf Grth-Beg Grn Fil   10  30.5  21.8  26.2  18.6   2.29  347.5   37.5   47.4   47.4    0    0    6    0    0    6  0.000  0.000  0.000  0.000  0.000  0.000
 Grain Filling Phase       45  31.2  22.0  26.6  18.1   0.00  347.6  124.0  167.6  209.3    0    0   31   12    2   19  0.062  0.100  0.012  0.031  0.000  0.000


 Planting to Harvest      114  32.5  22.2  27.3  18.9   8.26  347.5  424.1  359.7  589.8    0    0   91   54   29   51  0.171  0.206  0.009  0.024  0.000  0.000
----------------------------------------------------------------------------------------------------------------------------------------------------------------


*Resource Productivity
 Growing season length: 114 days 

 Precipitation during growing season       424.1 mm[rain]
   Dry Matter Productivity                  3.04 kg[DM]/m3[rain]          =   30.4 kg[DM]/ha per mm[rain]
   Yield Productivity                       1.77 kg[grain yield]/m3[rain] =   17.7 kg[yield]/ha per mm[rain]

 Evapotranspiration during growing season  359.7 mm[ET]
   Dry Matter Productivity                  3.59 kg[DM]/m3[ET]            =   35.9 kg[DM]/ha per mm[ET]
   Yield Productivity                       2.08 kg[grain yield]/m3[ET]   =   20.8 kg[yield]/ha per mm[ET]

 Transpiration during growing season       220.0 mm[EP]
   Dry Matter Productivity                  5.86 kg[DM]/m3[EP]            =   58.6 kg[DM]/ha per mm[EP]
   Yield Productivity                       3.41 kg[grain yield]/m3[EP]   =   34.1 kg[yield]/ha per mm[EP]

 N applied during growing season            162. kg[N applied]/ha
   Dry Matter Productivity                  79.6 kg[DM]/kg[N applied]
   Yield Productivity                       46.3 kg[yield]/kg[N applied]

 N uptake during growing season              164 kg[N uptake]/ha
   Dry Matter Productivity                  78.7 kg[DM]/kg[N uptake]
   Yield Productivity                       45.7 kg[yield]/kg[N uptake]

--------------------------------------------------------------------------------------------------------------

                     Maize YIELD :     7498 kg/ha    [Dry weight] 

**************************************************************************************************************

*DSSAT Cropping System Model Ver. 4.6.1.000 -release      OCT 24, 2017; 10:58:01
                                                                                
*RUN   8        : P08/18                    MZCER046 ANES1986    8              
 MODEL          : MZCER046 - Maize                                              
 EXPERIMENT     : ANES1986 MZ  Analisis a침os de bajo rendimiento Espinal       
 DATA PATH      : C:\DSSAT46\maize\                                             
 TREATMENT  8   : P08/18                    MZCER046                            
                                                                                
                                                                                
 CROP           : Maize            CULTIVAR : DK234            ECOTYPE :IB0001  
 STARTING DATE  : JUL 19 1986                                                   
 PLANTING DATE  : AUG 18 1986        PLANTS/m2 :  6.2     ROW SPACING :  80.cm  
 WEATHER        : CNAT   1986                                                   
 SOIL           : CCESPI2017     TEXTURE : SL    -   Suelo Espinal Calibraci    
 SOIL INITIAL C : DEPTH:100cm EXTR. H2O: 83.6mm  NO3:  0.0kg/ha  NH4:  0.0kg/ha 
 WATER BALANCE  : RAINFED                                                       
 IRRIGATION     : NOT IRRIGATED                                                 
 NITROGEN BAL.  : SOIL-N & N-UPTAKE SIMULATION; NO N-FIXATION                   
 N-FERTILIZER   :      162 kg/ha IN     6 APPLICATIONS                          
 RESIDUE/MANURE : INITIAL :     0 kg/ha ;       0 kg/ha IN     0 APPLICATIONS   
 ENVIRONM. OPT. : DAYL=    0.00  SRAD=    0.00  TMAX=    0.00  TMIN=    0.00    
                  RAIN=    0.00  CO2 =    0.00  DEW =    0.00  WIND=    0.00    
 SIMULATION OPT : WATER   :Y  NITROGEN:Y  N-FIX:N  PHOSPH :N  PESTS  :N         
                  PHOTO   :C  ET      :R  INFIL:S  HYDROL :R  SOM    :G         
                  CO2 347ppm  NSWIT   :1  EVAP :S  SOIL   :2  STEMP  :D         
 MANAGEMENT OPT : PLANTING:R  IRRIG   :N  FERT :D  RESIDUE:R  HARVEST:M         
                  WEATHER :M  TILLAGE :N                                        
                                                                                
*SUMMARY OF SOIL AND GENETIC INPUT PARAMETERS                                   
                                                                                
   SOIL LOWER UPPER   SAT  EXTR  INIT   ROOT   BULK     pH    NO3    NH4    ORG 
  DEPTH LIMIT LIMIT    SW    SW    SW   DIST   DENS                          C  
   cm   cm3/cm3    cm3/cm3    cm3/cm3         g/cm3         ugN/g  ugN/g     %  
------------------------------------------------------------------------------- 
  0-  5 0.160 0.252 0.376 0.092 0.252   1.00   1.69   6.60   0.00   0.00   0.45 
  5- 15 0.160 0.252 0.376 0.092 0.252   1.00   1.69   6.60   0.00   0.00   0.45 
 15- 30 0.160 0.252 0.376 0.092 0.252   1.00   1.69   6.60   0.00   0.00   0.45 
 30- 53 0.120 0.200 0.440 0.080 0.200   0.27   1.40   7.10   0.00   0.00   0.17 
 53- 77 0.120 0.200 0.440 0.080 0.200   0.27   1.40   7.10   0.00   0.00   0.17 
 77-100 0.120 0.200 0.440 0.080 0.200   0.27   1.40   7.10   0.00   0.00   0.17 
                                                                                
TOT-100  13.2  21.6  42.1   8.4  21.6  <--cm   -  kg/ha-->    0.0    0.0  39475 
SOIL ALBEDO    : 0.09      EVAPORATION LIMIT : 6.00         MIN. FACTOR  : 1.00 
RUNOFF CURVE # :76.00      DRAINAGE RATE     : 0.60         FERT. FACTOR : 1.00 
                                                                                
 Maize      CULTIVAR :CI0002-DK234              ECOTYPE :IB0001                 
 P1     : 300.00  P2     : 0.4000  P5     :1075.00                              
 G2     : 890.00  G3     :  7.750  PHINT  : 40.000                              


*SIMULATED CROP AND SOIL STATUS AT MAIN DEVELOPMENT STAGES

 RUN NO.     8     P08/18                  

        CROP GROWTH     BIOMASS         LEAF   CROP N     STRESS      STRESS                                           
   DATE  AGE STAGE        kg/ha    LAI   NUM  kg/ha  %   H2O  Nitr Phos1 Phos2  RSTG                                   
 ------  --- ----------   -----  -----  ----  ---  ---  ----  ----  ----  ----  ----                                   
 19 JUL    0 Start Sim        0   0.00   0.0    0  0.0  0.00  0.00  0.00  0.00     7
 18 AUG    0 Sowing           0   0.00   0.0    0  0.0  0.00  0.00  0.00  0.00     8
 19 AUG    1 Germinate        0   0.00   0.0    0  0.0  0.00  0.00  0.00  0.00     9
 23 AUG    5 Emergence       25   0.01   2.3    1  4.4  0.00  0.01  0.00  0.00     1
  6 SEP   19 End Juveni     360   0.64  10.5   13  3.7  0.08  0.00  0.00  0.00     2
 10 SEP   23 Floral Ini     466   0.70  12.6   19  4.2  0.76  0.00  0.00  0.00     3
 12 OCT   55 75% Silkin    3853   1.63  25.9   80  2.1  0.34  0.00  0.00  0.00     4
 22 OCT   65 Beg Gr Fil    5784   1.63  25.9   80  1.4  0.00  0.00  0.00  0.00     5
  6 DEC  110 End Gr Fil   12491   0.85  25.9  151  1.2  0.20  0.04  0.00  0.00     6
  9 DEC  113 Maturity     12491   0.85  25.9  151  1.2  0.25  0.28  0.00  0.00    10
  9 DEC  113 Harvest      12491   0.85  25.9  151  1.2  0.00  0.00  0.00  0.00    10


*MAIN GROWTH AND DEVELOPMENT VARIABLES

@     VARIABLE                                         SIMULATED     MEASURED
      --------                                         ---------     --------
      Anthesis day (dap)                                      55          -99
      Physiological maturity day (dap)                       113          -99
      Yield at harvest maturity (kg [dm]/ha)                7102          -99
      Number at maturity (no/m2)                            2327          -99
[...]
 WATER BALANCE  : RAINFED                                                       
 IRRIGATION     : NOT IRRIGATED                                                 
 NITROGEN BAL.  : SOIL-N & N-UPTAKE SIMULATION; NO N-FIXATION                   
 N-FERTILIZER   :      162 kg/ha IN     6 APPLICATIONS                          
 RESIDUE/MANURE : INITIAL :     0 kg/ha ;       0 kg/ha IN     0 APPLICATIONS   
 ENVIRONM. OPT. : DAYL=    0.00  SRAD=    0.00  TMAX=    0.00  TMIN=    0.00    
                  RAIN=    0.00  CO2 =    0.00  DEW =    0.00  WIND=    0.00    
 SIMULATION OPT : WATER   :Y  NITROGEN:Y  N-FIX:N  PHOSPH :N  PESTS  :N         
                  PHOTO   :C  ET      :R  INFIL:S  HYDROL :R  SOM    :G         
                  CO2 348ppm  NSWIT   :1  EVAP :S  SOIL   :2  STEMP  :D         
 MANAGEMENT OPT : PLANTING:R  IRRIG   :N  FERT :D  RESIDUE:R  HARVEST:M         
                  WEATHER :M  TILLAGE :N                                        
                                                                                
*SUMMARY OF SOIL AND GENETIC INPUT PARAMETERS                                   
                                                                                
   SOIL LOWER UPPER   SAT  EXTR  INIT   ROOT   BULK     pH    NO3    NH4    ORG 
  DEPTH LIMIT LIMIT    SW    SW    SW   DIST   DENS                          C  
   cm   cm3/cm3    cm3/cm3    cm3/cm3         g/cm3         ugN/g  ugN/g     %  
------------------------------------------------------------------------------- 
  0-  5 0.160 0.252 0.376 0.092 0.252   1.00   1.69   6.60   0.00   0.00   0.45 
  5- 15 0.160 0.252 0.376 0.092 0.252   1.00   1.69   6.60   0.00   0.00   0.45 
 15- 30 0.160 0.252 0.376 0.092 0.252   1.00   1.69   6.60   0.00   0.00   0.45 
 30- 53 0.120 0.200 0.440 0.080 0.200   0.27   1.40   7.10   0.00   0.00   0.17 
 53- 77 0.120 0.200 0.440 0.080 0.200   0.27   1.40   7.10   0.00   0.00   0.17 
 77-100 0.120 0.200 0.440 0.080 0.200   0.27   1.40   7.10   0.00   0.00   0.17 
                                                                                
TOT-100  13.2  21.6  42.1   8.4  21.6  <--cm   -  kg/ha-->    0.0    0.0  39475 
SOIL ALBEDO    : 0.09      EVAPORATION LIMIT : 6.00         MIN. FACTOR  : 1.00 
RUNOFF CURVE # :76.00      DRAINAGE RATE     : 0.60         FERT. FACTOR : 1.00 
                                                                                
 Maize      CULTIVAR :CI0002-DK234              ECOTYPE :IB0001                 
 P1     : 300.00  P2     : 0.4000  P5     :1075.00                              
 G2     : 890.00  G3     :  7.750  PHINT  : 40.000                              


*SIMULATED CROP AND SOIL STATUS AT MAIN DEVELOPMENT STAGES

 RUN NO.    31     P11/26                  

        CROP GROWTH     BIOMASS         LEAF   CROP N     STRESS      STRESS                                           
   DATE  AGE STAGE        kg/ha    LAI   NUM  kg/ha  %   H2O  Nitr Phos1 Phos2  RSTG                                   
 ------  --- ----------   -----  -----  ----  ---  ---  ----  ----  ----  ----  ----                                   
 26 NOV    0 Start Sim        0   0.00   0.0    0  0.0  0.00  0.00  0.00  0.00     7
 26 DEC    0 Sowing           0   0.00   0.0    0  0.0  0.00  0.00  0.00  0.00     8
 27 DEC    1 Germinate        0   0.00   0.0    0  0.0  0.00  0.00  0.00  0.00     9
 31 DEC    5 Emergence       25   0.00   2.3    1  4.4  0.00  0.01  0.00  0.00     1
 15 JAN   20 End Juveni     346   0.57  10.6    6  1.6  0.08  0.16  0.00  0.00     2
 19 JAN   24 Floral Ini     446   0.62  12.7    6  1.4  0.34  0.78  0.00  0.00     3
 18 FEB   54 75% Silkin    2035   0.74  26.2   44  2.1  0.54  0.66  0.00  0.00     4
 26 FEB   62 Beg Gr Fil    3054   0.72  26.2   45  1.5  0.08  0.00  0.00  0.00     5
  9 APR  104 End Gr Fil    6677   0.53  26.2   88  1.3  0.22  0.00  0.00  0.00     6
 12 APR  107 Maturity      6677   0.53  26.2   88  1.3  0.00  0.00  0.00  0.00    10
 12 APR  107 Harvest       6677   0.53  26.2   88  1.3  0.00  0.00  0.00  0.00    10


*MAIN GROWTH AND DEVELOPMENT VARIABLES

@     VARIABLE                                         SIMULATED     MEASURED
      --------                                         ---------     --------
      Anthesis day (dap)                                      54          -99
      Physiological maturity day (dap)                       107          -99
      Yield at harvest maturity (kg [dm]/ha)                3857          -99
      Number at maturity (no/m2)                            1686          -99
      Unit wt at maturity (g [dm]/unit)                   0.2288          -99
      Number at maturity (no/unit)                         271.9          -99
      Tops weight at maturity (kg [dm]/ha)                  6677          -99
      By-product produced (stalk) at maturity (kg[dm]/ha    2848          -99
      Leaf area index, maximum                              0.74          -99
      Harvest index at maturity                            0.578          -99
      Grain N at maturity (kg/ha)                             69          -99
      Tops N at maturity (kg/ha)                              88          -99
      Stem N at maturity (kg/ha)                              19          -99
      Grain N at maturity (%)                                1.8          -99
      Tops weight at anthesis (kg [dm]/ha)                  1932          -99
      Tops N at anthesis (kg/ha)                              42          -99
      Leaf number per stem at maturity                     26.23          -99
      Emergence day (dap)                                      5          -99


*ENVIRONMENTAL AND STRESS FACTORS

 |-----Development Phase------|--------------------------------------Environment--------------------------------------|-----------------Stress-----------------|
                              |---------------Average--------------|-----Cumulative-----|--------Count of days--------|          (0=Min, 1=Max Stress)         |
                         Time  Temp  Temp  Temp Solar Photop                Evapo    Pot TMIN TMIN TMAX TMAX TMAX RAIN|----Water----|---Nitrogen--|-Phosphorus-|
                         Span   Max   Min  Mean   Rad  [day]    CO2   Rain  Trans     ET   <    <    >    >    >    >   Photo         Photo         Photo
                         days    邂    邂    邂 MJ/m2     hr    ppm     mm     mm     mm  0邂  2邂 30邂 32邂 34邂  0mm  synth Growth  synth Growth  synth Growth
----------------------------------------------------------------------------------------------------------------------------------------------------------------
 Emergence-End Juvenile    15  32.6  23.0  27.8  19.6   0.00  347.8   36.2   35.4   84.6    0    0   14   10    2    3  0.000  0.045  0.051  0.113  0.000  0.000
 End Juvenil-Floral Init    4  36.0  22.3  29.1  22.5   0.00  348.0    0.0    8.4   26.4    0    0    4    4    4    0  0.182  0.455  0.520  0.767  0.000  0.000
 Floral Init-End Lf Grow   30  34.4  23.7  29.0  18.4   0.00  348.0   83.5   50.7  158.4    0    0   28   26   17    7  0.404  0.537  0.491  0.687  0.000  0.000
 End Lf Grth-Beg Grn Fil    8  34.8  24.0  29.4  21.4   0.00  348.1    3.3   25.6   49.4    0    0    8    8    5    2  0.000  0.012  0.000  0.000  0.000  0.000
 Grain Filling Phase       42  33.8  23.8  28.8  19.7  10.34  348.2  194.9  134.2  238.3    0    0   38   32   20   11  0.153  0.229  0.000  0.000  0.000  0.000


 Planting to Harvest      107  33.8  23.5  28.7  19.5   4.60  348.1  323.2  269.9  599.5    0    0   98   84   48   24  0.180  0.265  0.164  0.237  0.000  0.000
----------------------------------------------------------------------------------------------------------------------------------------------------------------


*Resource Productivity
 Growing season length: 107 days 

 Precipitation during growing season       323.2 mm[rain]
   Dry Matter Productivity                  2.07 kg[DM]/m3[rain]          =   20.7 kg[DM]/ha per mm[rain]
   Yield Productivity                       1.19 kg[grain yield]/m3[rain] =   11.9 kg[yield]/ha per mm[rain]

 Evapotranspiration during growing season  269.9 mm[ET]
   Dry Matter Productivity                  2.47 kg[DM]/m3[ET]            =   24.7 kg[DM]/ha per mm[ET]
   Yield Productivity                       1.43 kg[grain yield]/m3[ET]   =   14.3 kg[yield]/ha per mm[ET]

 Transpiration during growing season       144.2 mm[EP]
   Dry Matter Productivity                  4.63 kg[DM]/m3[EP]            =   46.3 kg[DM]/ha per mm[EP]
   Yield Productivity                       2.67 kg[grain yield]/m3[EP]   =   26.7 kg[yield]/ha per mm[EP]

 N applied during growing season            162. kg[N applied]/ha
   Dry Matter Productivity                  41.2 kg[DM]/kg[N applied]
   Yield Productivity                       23.8 kg[yield]/kg[N applied]

 N uptake during growing season               94 kg[N uptake]/ha
   Dry Matter Productivity                  71.0 kg[DM]/kg[N uptake]
   Yield Productivity                       41.0 kg[yield]/kg[N uptake]

--------------------------------------------------------------------------------------------------------------

                     Maize YIELD :     3857 kg/ha    [Dry weight] 

**************************************************************************************************************

*DSSAT Cropping System Model Ver. 4.6.1.000 -release      OCT 24, 2017; 10:58:14
                                                                                
*RUN  32        : P12/31                    MZCER046 ANES1986   32              
 MODEL          : MZCER046 - Maize                                              
 EXPERIMENT     : ANES1986 MZ  Analisis a침os de bajo rendimiento Espinal       
 DATA PATH      : C:\DSSAT46\maize\                                             
 TREATMENT 32   : P12/31                    MZCER046                            
                                                                                
                                                                                
 CROP           : Maize            CULTIVAR : DK234            ECOTYPE :IB0001  
 STARTING DATE  : DEC  1 1986                                                   
 PLANTING DATE  : DEC 31 1986        PLANTS/m2 :  6.2     ROW SPACING :  80.cm  
 WEATHER        : CNAT   1986                                                   
 SOIL           : CCESPI2017     TEXTURE : SL    -   Suelo Espinal Calibraci    
 SOIL INITIAL C : DEPTH:100cm EXTR. H2O: 83.6mm  NO3:  0.0kg/ha  NH4:  0.0kg/ha 
 WATER BALANCE  : RAINFED                                                       
 IRRIGATION     : NOT IRRIGATED                                                 
 NITROGEN BAL.  : SOIL-N & N-UPTAKE SIMULATION; NO N-FIXATION                   
 N-FERTILIZER   :      162 kg/ha IN     6 APPLICATIONS                          
 RESIDUE/MANURE : INITIAL :     0 kg/ha ;       0 kg/ha IN     0 APPLICATIONS   
 ENVIRONM. OPT. : DAYL=    0.00  SRAD=    0.00  TMAX=    0.00  TMIN=    0.00    
                  RAIN=    0.00  CO2 =    0.00  DEW =    0.00  WIND=    0.00    
 SIMULATION OPT : WATER   :Y  NITROGEN:Y  N-FIX:N  PHOSPH :N  PESTS  :N         
                  PHOTO   :C  ET      :R  INFIL:S  HYDROL :R  SOM    :G         
                  CO2 348ppm  NSWIT   :1  EVAP :S  SOIL   :2  STEMP  :D         
 MANAGEMENT OPT : PLANTING:R  IRRIG   :N  FERT :D  RESIDUE:R  HARVEST:M         
                  WEATHER :M  TILLAGE :N                                        
                                                                                
*SUMMARY OF SOIL AND GENETIC INPUT PARAMETERS                                   
                                                                                
   SOIL LOWER UPPER   SAT  EXTR  INIT   ROOT   BULK     pH    NO3    NH4    ORG 
  DEPTH LIMIT LIMIT    SW    SW    SW   DIST   DENS                          C  
   cm   cm3/cm3    cm3/cm3    cm3/cm3         g/cm3         ugN/g  ugN/g     %  
------------------------------------------------------------------------------- 
  0-  5 0.160 0.252 0.376 0.092 0.252   1.00   1.69   6.60   0.00   0.00   0.45 
  5- 15 0.160 0.252 0.376 0.092 0.252   1.00   1.69   6.60   0.00   0.00   0.45 
 15- 30 0.160 0.252 0.376 0.092 0.252   1.00   1.69   6.60   0.00   0.00   0.45 
 30- 53 0.120 0.200 0.440 0.080 0.200   0.27   1.40   7.10   0.00   0.00   0.17 
 53- 77 0.120 0.200 0.440 0.080 0.200   0.27   1.40   7.10   0.00   0.00   0.17 
 77-100 0.120 0.200 0.440 0.080 0.200   0.27   1.40   7.10   0.00   0.00   0.17 
                                                                                
TOT-100  13.2  21.6  42.1   8.4  21.6  <--cm   -  kg/ha-->    0.0    0.0  39475 
SOIL ALBEDO    : 0.09      EVAPORATION LIMIT : 6.00         MIN. FACTOR  : 1.00 
RUNOFF CURVE # :76.00      DRAINAGE RATE     : 0.60         FERT. FACTOR : 1.00 
                                                                                
 Maize      CULTIVAR :CI0002-DK234              ECOTYPE :IB0001                 
 P1     : 300.00  P2     : 0.4000  P5     :1075.00                              
 G2     : 890.00  G3     :  7.750  PHINT  : 40.000                              


*SIMULATED CROP AND SOIL STATUS AT MAIN DEVELOPMENT STAGES

 RUN NO.    32     P12/31                  

        CROP GROWTH     BIOMASS         LEAF   CROP N     STRESS      STRESS                                           
   DATE  AGE STAGE        kg/ha    LAI   NUM  kg/ha  %   H2O  Nitr Phos1 Phos2  RSTG                                   
 ------  --- ----------   -----  -----  ----  ---  ---  ----  ----  ----  ----  ----                                   
  1 DEC    0 Start Sim        0   0.00   0.0    0  0.0  0.00  0.00  0.00  0.00     7
 31 DEC    0 Sowing           0   0.00   0.0    0  0.0  0.00  0.00  0.00  0.00     8
  1 JAN    1 Germinate        0   0.00   0.0    0  0.0  0.00  0.00  0.00  0.00     9
  5 JAN    5 Emergence       25   0.00   2.2    1  4.4  0.00  0.01  0.00  0.00     1
 19 JAN   19 End Juveni     309   0.52  10.2    5  1.6  0.04  0.17  0.00  0.00     2
 23 JAN   23 Floral Ini     395   0.56  12.3    6  1.4  0.32  0.79  0.00  0.00     3
 22 FEB   53 75% Silkin    2643   0.98  25.4   54  2.0  0.43  0.55  0.00  0.00     4
  1 MAR   60 Beg Gr Fil    3287   0.86  25.4   55  1.7  0.56  0.00  0.00  0.00     5
 12 APR  102 End Gr Fil    6712   0.61  25.4   89  1.3  0.23  0.00  0.00  0.00     6
 15 APR  105 Maturity      6712   0.61  25.4   89  1.3  0.00  0.00  0.00  0.00    10
 15 APR  105 Harvest       6712   0.61  25.4   89  1.3  0.00  0.00  0.00  0.00    10


*MAIN GROWTH AND DEVELOPMENT VARIABLES

@     VARIABLE                                         SIMULATED     MEASURED
      --------                                         ---------     --------
      Anthesis day (dap)                                      53          -99
      Physiological maturity day (dap)                       105          -99
      Yield at harvest maturity (kg [dm]/ha)                3526          -99
      Number at maturity (no/m2)                            1508          -99
      Unit wt at maturity (g [dm]/unit)                   0.2338          -99
      Number at maturity (no/unit)                         243.3          -99
      Tops weight at maturity (kg [dm]/ha)                  6712          -99
      By-product produced (stalk) at maturity (kg[dm]/ha    3215          -99
      Leaf area index, maximum                              0.98          -99
      Harvest index at maturity                            0.525          -99
      Grain N at maturity (kg/ha)                             63          -99
      Tops N at maturity (kg/ha)                              89          -99
      Stem N at maturity (kg/ha)                              26          -99
      Grain N at maturity (%)                                1.8          -99
      Tops weight at anthesis (kg [dm]/ha)                  2457          -99
      Tops N at anthesis (kg/ha)                              52          -99
      Leaf number per stem at maturity                     25.37          -99
      Emergence day (dap)                                      5          -99


*ENVIRONMENTAL AND STRESS FACTORS

 |-----Development Phase------|--------------------------------------Environment--------------------------------------|-----------------Stress-----------------|
                              |---------------Average--------------|-----Cumulative-----|--------Count of days--------|          (0=Min, 1=Max Stress)         |
                         Time  Temp  Temp  Temp Solar Photop                Evapo    Pot TMIN TMIN TMAX TMAX TMAX RAIN|----Water----|---Nitrogen--|-Phosphorus-|
                         Span   Max   Min  Mean   Rad  [day]    CO2   Rain  Trans     ET   <    <    >    >    >    >   Photo         Photo         Photo
                         days    邂    邂    邂 MJ/m2     hr    ppm     mm     mm     mm  0邂  2邂 30邂 32邂 34邂  0mm  synth Growth  synth Growth  synth Growth
----------------------------------------------------------------------------------------------------------------------------------------------------------------
 Emergence-End Juvenile    14  33.7  22.8  28.2  20.6   0.00  347.9    0.0   15.9   84.2    0    0   14   11    6    0  0.004  0.037  0.054  0.113  0.000  0.000
 End Juvenil-Floral Init    4  33.5  23.7  28.6  15.1   0.00  348.0    2.3    6.3   16.8    0    0    4    4    2    2  0.025  0.242  0.542  0.785  0.000  0.000
 Floral Init-End Lf Grow   30  34.5  23.7  29.1  19.3   0.00  348.0   84.2   62.2  167.0    0    0   28   26   17    6  0.313  0.443  0.413  0.578  0.000  0.000
 End Lf Grth-Beg Grn Fil    7  35.9  23.9  29.9  21.6   0.25  348.1    0.3   19.8   44.9    0    0    7    7    6    1  0.279  0.455  0.000  0.000  0.000  0.000
 Grain Filling Phase       42  33.4  23.7  28.6  19.3  11.68  348.2  194.9  135.6  229.0    0    0   37   30   17   11  0.173  0.244  0.000  0.000  0.000  0.000


 Planting to Harvest      105  33.9  23.6  28.7  19.6   5.31  348.1  317.9  269.0  590.3    0    0   97   84   50   23  0.179  0.268  0.146  0.210  0.000  0.000
----------------------------------------------------------------------------------------------------------------------------------------------------------------


*Resource Productivity
 Growing season length: 105 days 

 Precipitation during growing season       317.9 mm[rain]
   Dry Matter Productivity                  2.11 kg[DM]/m3[rain]          =   21.1 kg[DM]/ha per mm[rain]
   Yield Productivity                       1.11 kg[grain yield]/m3[rain] =   11.1 kg[yield]/ha per mm[rain]

 Evapotranspiration during growing season  269.0 mm[ET]
   Dry Matter Productivity                  2.49 kg[DM]/m3[ET]            =   24.9 kg[DM]/ha per mm[ET]
   Yield Productivity                       1.31 kg[grain yield]/m3[ET]   =   13.1 kg[yield]/ha per mm[ET]

 Transpiration during growing season       154.5 mm[EP]
   Dry Matter Productivity                  4.34 kg[DM]/m3[EP]            =   43.4 kg[DM]/ha per mm[EP]
   Yield Productivity                       2.28 kg[grain yield]/m3[EP]   =   22.8 kg[yield]/ha per mm[EP]

 N applied during growing season            162. kg[N applied]/ha
   Dry Matter Productivity                  41.4 kg[DM]/kg[N applied]
   Yield Productivity                       21.8 kg[yield]/kg[N applied]

 N uptake during growing season               96 kg[N uptake]/ha
   Dry Matter Productivity                  69.9 kg[DM]/kg[N uptake]
   Yield Productivity                       36.7 kg[yield]/kg[N uptake]

--------------------------------------------------------------------------------------------------------------

                     Maize YIELD :     3526 kg/ha    [Dry weight] 

**************************************************************************************************************
