*SIMULATION OVERVIEW FILE

*DSSAT Cropping System Model Ver. 4.6.1.000 -release      OCT 02, 2017; 14:04:35
                                                                                
*RUN   1        : P04/02                    MZCER046 ANBU2009    1              
 MODEL          : MZCER046 - Maize                                              
 EXPERIMENT     : ANBU2009 MZ  Analisis a침os de bajo rendimiento Buga          
 DATA PATH      : C:\DSSAT46\maize\                                             
 TREATMENT  1   : P04/02                    MZCER046                            
                                                                                
                                                                                
 CROP           : Maize            CULTIVAR : FNC3056          ECOTYPE :IB0001  
 STARTING DATE  : MAR  3 2009                                                   
 PLANTING DATE  : APR  2 2009        PLANTS/m2 :  6.2     ROW SPACING :  80.cm  
 WEATHER        : CUNI   2009                                                   
 SOIL           : CCBUGA2017     TEXTURE : CL    -   Suelo Buga MADR Fase I     
 SOIL INITIAL C : DEPTH: 90cm EXTR. H2O: 83.9mm  NO3:151.4kg/ha  NH4: 62.4kg/ha 
 WATER BALANCE  : RAINFED                                                       
 IRRIGATION     : NOT IRRIGATED                                                 
 NITROGEN BAL.  : SOIL-N & N-UPTAKE SIMULATION; NO N-FIXATION                   
 N-FERTILIZER   :      161 kg/ha IN     5 APPLICATIONS                          
 RESIDUE/MANURE : INITIAL :     0 kg/ha ;       0 kg/ha IN     0 APPLICATIONS   
 ENVIRONM. OPT. : DAYL=    0.00  SRAD=    0.00  TMAX=    0.00  TMIN=    0.00    
                  RAIN=    0.00  CO2 =    0.00  DEW =    0.00  WIND=    0.00    
 SIMULATION OPT : WATER   :Y  NITROGEN:Y  N-FIX:N  PHOSPH :N  PESTS  :N         
                  PHOTO   :C  ET      :R  INFIL:S  HYDROL :R  SOM    :G         
                  CO2 387ppm  NSWIT   :1  EVAP :S  SOIL   :2  STEMP  :D         
 MANAGEMENT OPT : PLANTING:R  IRRIG   :N  FERT :D  RESIDUE:R  HARVEST:M         
                  WEATHER :M  TILLAGE :N                                        
                                                                                
*SUMMARY OF SOIL AND GENETIC INPUT PARAMETERS                                   
                                                                                
   SOIL LOWER UPPER   SAT  EXTR  INIT   ROOT   BULK     pH    NO3    NH4    ORG 
  DEPTH LIMIT LIMIT    SW    SW    SW   DIST   DENS                          C  
   cm   cm3/cm3    cm3/cm3    cm3/cm3         g/cm3         ugN/g  ugN/g     %  
------------------------------------------------------------------------------- 
  0-  5 0.215 0.331 0.341 0.116 0.319   1.00   1.68   6.70  11.90   4.21   0.75 
  5- 15 0.215 0.331 0.341 0.116 0.319   1.00   1.68   6.70  11.90   4.21   0.75 
 15- 25 0.215 0.331 0.341 0.116 0.319   1.00   1.68   6.70  11.90   4.21   0.75 
 25- 35 0.181 0.291 0.364 0.110 0.331   0.50   1.61   7.20  12.15   4.32   0.53 
 35- 45 0.181 0.291 0.364 0.110 0.344   0.50   1.61   7.20  12.40   4.44   0.53 
 45- 67 0.096 0.169 0.404 0.073 0.290   0.27   1.51   7.00  10.67   4.47   0.05 
 67- 90 0.096 0.169 0.404 0.073 0.195   0.27   1.51   7.00   7.63   4.53   0.05 
                                                                                
TOT- 90  13.3  21.7  34.0   8.4  25.6  <--cm   -  kg/ha-->  151.4   62.4  51964 
SOIL ALBEDO    : 0.09      EVAPORATION LIMIT : 6.00         MIN. FACTOR  : 1.00 
RUNOFF CURVE # :76.00      DRAINAGE RATE     : 0.60         FERT. FACTOR : 1.00 
                                                                                
 Maize      CULTIVAR :CI0003-FNC3056            ECOTYPE :IB0001                 
 P1     : 233.00  P2     : 0.5000  P5     : 976.00                              
 G2     : 956.00  G3     :  7.500  PHINT  : 45.600                              


*SIMULATED CROP AND SOIL STATUS AT MAIN DEVELOPMENT STAGES

 RUN NO.     1     P04/02                  

        CROP GROWTH     BIOMASS         LEAF   CROP N     STRESS      STRESS                                           
   DATE  AGE STAGE        kg/ha    LAI   NUM  kg/ha  %   H2O  Nitr Phos1 Phos2  RSTG                                   
 ------  --- ----------   -----  -----  ----  ---  ---  ----  ----  ----  ----  ----                                   
  3 MAR    0 Start Sim        0   0.00   0.0    0  0.0  0.00  0.00  0.00  0.00     7
  2 APR    0 Sowing           0   0.00   0.0    0  0.0  0.00  0.00  0.00  0.00     8
  3 APR    1 Germinate        0   0.00   0.0    0  0.0  0.00  0.00  0.00  0.00     9
  8 APR    6 Emergence       25   0.00   2.0    1  4.4  0.00  0.01  0.00  0.00     1
 20 APR   18 End Juveni      79   0.17   7.5    3  3.3  0.00  0.00  0.00  0.00     2
 27 APR   25 Floral Ini     329   0.59  10.4   12  3.6  0.00  0.00  0.00  0.00     3
  3 JUN   62 75% Silkin    6173   3.10  22.0  122  2.0  0.16  0.00  0.00  0.00     4
 13 JUN   72 Beg Gr Fil    8440   3.10  22.0  124  1.5  0.00  0.00  0.00  0.00     5
 29 JUL  118 End Gr Fil   16764   1.52  22.0  215  1.3  0.27  0.00  0.00  0.00     6
  1 AUG  121 Maturity     16764   1.52  22.0  215  1.3  0.95  0.00  0.00  0.00    10
  1 AUG  121 Harvest      16764   1.52  22.0  215  1.3  0.00  0.00  0.00  0.00    10


*MAIN GROWTH AND DEVELOPMENT VARIABLES

@     VARIABLE                                         SIMULATED     MEASURED
      --------                                         ---------     --------
      Anthesis day (dap)                                      62          -99
      Physiological maturity day (dap)                       121          -99
      Yield at harvest maturity (kg [dm]/ha)                9326          -99
      Number at maturity (no/m2)                            3064          -99
      Unit wt at maturity (g [dm]/unit)                   0.3043          -99
      Number at maturity (no/unit)                         494.2          -99
      Tops weight at maturity (kg [dm]/ha)                 16764          -99
      By-product produced (stalk) at maturity (kg[dm]/ha    7498          -99
      Leaf area index, maximum                              3.21          -99
      Harvest index at maturity                            0.556          -99
      Grain N at maturity (kg/ha)                            162          -99
      Tops N at maturity (kg/ha)                             215          -99
      Stem N at maturity (kg/ha)                              53          -99
      Grain N at maturity (%)                                1.7          -99
      Tops weight at anthesis (kg [dm]/ha)                  5853          -99
      Tops N at anthesis (kg/ha)                             120          -99
      Leaf number per stem at maturity                     22.02          -99
      Emergence day (dap)                                      6          -99


*ENVIRONMENTAL AND STRESS FACTORS

 |-----Development Phase------|--------------------------------------Environment--------------------------------------|-----------------Stress-----------------|
                              |---------------Average--------------|-----Cumulative-----|--------Count of days--------|          (0=Min, 1=Max Stress)         |
                         Time  Temp  Temp  Temp Solar Photop                Evapo    Pot TMIN TMIN TMAX TMAX TMAX RAIN|----Water----|---Nitrogen--|-Phosphorus-|
                         Span   Max   Min  Mean   Rad  [day]    CO2   Rain  Trans     ET   <    <    >    >    >    >   Photo         Photo         Photo
                         days    邂    邂    邂 MJ/m2     hr    ppm     mm     mm     mm  0邂  2邂 30邂 32邂 34邂  0mm  synth Growth  synth Growth  synth Growth
----------------------------------------------------------------------------------------------------------------------------------------------------------------
 Emergence-End Juvenile    12  31.4  19.6  25.5  17.0  21.85  386.8   18.3   29.2   57.8    0    0   11    3    0    6  0.000  0.000  0.002  0.005  0.000  0.000
 End Juvenil-Floral Init    7  32.0  19.8  25.9  15.7  24.00  386.9    8.9   10.8   30.3    0    0    5    2    1    1  0.000  0.000  0.000  0.001  0.000  0.000
 Floral Init-End Lf Grow   37  31.3  18.9  25.1  16.2  24.00  387.0   83.5  124.7  148.3    0    0   26   10    1   16  0.107  0.155  0.000  0.000  0.000  0.000
 End Lf Grth-Beg Grn Fil   10  30.9  19.6  25.3  16.8  24.00  387.1   90.7   40.4   40.5    0    0    6    2    1    7  0.000  0.029  0.000  0.000  0.000  0.000
 Grain Filling Phase       46  30.3  18.2  24.3  16.2  24.00  387.3   93.3  139.6  177.9    0    0   23    9    0    9  0.214  0.251  0.000  0.000  0.000  0.000


 Planting to Harvest      121  30.9  18.8  24.9  16.6  23.43  387.1  303.7  358.1  503.8    0    0   76   28    3   40  0.137  0.169  0.000  0.001  0.000  0.000
----------------------------------------------------------------------------------------------------------------------------------------------------------------


*Resource Productivity
 Growing season length: 121 days 

 Precipitation during growing season       303.7 mm[rain]
   Dry Matter Productivity                  5.52 kg[DM]/m3[rain]          =   55.2 kg[DM]/ha per mm[rain]
   Yield Productivity                       3.07 kg[grain yield]/m3[rain] =   30.7 kg[yield]/ha per mm[rain]

 Evapotranspiration during growing season  358.1 mm[ET]
   Dry Matter Productivity                  4.68 kg[DM]/m3[ET]            =   46.8 kg[DM]/ha per mm[ET]
   Yield Productivity                       2.60 kg[grain yield]/m3[ET]   =   26.0 kg[yield]/ha per mm[ET]

 Transpiration during growing season       248.9 mm[EP]
   Dry Matter Productivity                  6.74 kg[DM]/m3[EP]            =   67.4 kg[DM]/ha per mm[EP]
   Yield Productivity                       3.75 kg[grain yield]/m3[EP]   =   37.5 kg[yield]/ha per mm[EP]

 N applied during growing season            161. kg[N applied]/ha
   Dry Matter Productivity                 104.1 kg[DM]/kg[N applied]
   Yield Productivity                       57.9 kg[yield]/kg[N applied]

 N uptake during growing season              231 kg[N uptake]/ha
   Dry Matter Productivity                  72.6 kg[DM]/kg[N uptake]
   Yield Productivity                       40.4 kg[yield]/kg[N uptake]

--------------------------------------------------------------------------------------------------------------

                     Maize YIELD :     9326 kg/ha    [Dry weight] 

**************************************************************************************************************

*DSSAT Cropping System Model Ver. 4.6.1.000 -release      OCT 02, 2017; 14:04:36
                                                                                
*RUN   2        : P04/07                    MZCER046 ANBU2009    2              
 MODEL          : MZCER046 - Maize                                              
 EXPERIMENT     : ANBU2009 MZ  Analisis a침os de bajo rendimiento Buga          
 DATA PATH      : C:\DSSAT46\maize\                                             
 TREATMENT  2   : P04/07                    MZCER046                            
                                                                                
                                                                                
 CROP           : Maize            CULTIVAR : FNC3056          ECOTYPE :IB0001  
 STARTING DATE  : MAR  8 2009                                                   
 PLANTING DATE  : APR  7 2009        PLANTS/m2 :  6.2     ROW SPACING :  80.cm  
 WEATHER        : CUNI   2009                                                   
 SOIL           : CCBUGA2017     TEXTURE : CL    -   Suelo Buga MADR Fase I     
 SOIL INITIAL C : DEPTH: 90cm EXTR. H2O: 83.9mm  NO3:151.4kg/ha  NH4: 62.4kg/ha 
 WATER BALANCE  : RAINFED                                                       
 IRRIGATION     : NOT IRRIGATED                                                 
 NITROGEN BAL.  : SOIL-N & N-UPTAKE SIMULATION; NO N-FIXATION                   
 N-FERTILIZER   :      161 kg/ha IN     5 APPLICATIONS                          
 RESIDUE/MANURE : INITIAL :     0 kg/ha ;       0 kg/ha IN     0 APPLICATIONS   
 ENVIRONM. OPT. : DAYL=    0.00  SRAD=    0.00  TMAX=    0.00  TMIN=    0.00    
                  RAIN=    0.00  CO2 =    0.00  DEW =    0.00  WIND=    0.00    
 SIMULATION OPT : WATER   :Y  NITROGEN:Y  N-FIX:N  PHOSPH :N  PESTS  :N         
                  PHOTO   :C  ET      :R  INFIL:S  HYDROL :R  SOM    :G         
                  CO2 387ppm  NSWIT   :1  EVAP :S  SOIL   :2  STEMP  :D         
 MANAGEMENT OPT : PLANTING:R  IRRIG   :N  FERT :D  RESIDUE:R  HARVEST:M         
                  WEATHER :M  TILLAGE :N                                        
                                                                                
*SUMMARY OF SOIL AND GENETIC INPUT PARAMETERS                                   
                                                                                
   SOIL LOWER UPPER   SAT  EXTR  INIT   ROOT   BULK     pH    NO3    NH4    ORG 
  DEPTH LIMIT LIMIT    SW    SW    SW   DIST   DENS                          C  
   cm   cm3/cm3    cm3/cm3    cm3/cm3         g/cm3         ugN/g  ugN/g     %  
------------------------------------------------------------------------------- 
  0-  5 0.215 0.331 0.341 0.116 0.319   1.00   1.68   6.70  11.90   4.21   0.75 
  5- 15 0.215 0.331 0.341 0.116 0.319   1.00   1.68   6.70  11.90   4.21   0.75 
 15- 25 0.215 0.331 0.341 0.116 0.319   1.00   1.68   6.70  11.90   4.21   0.75 
 25- 35 0.181 0.291 0.364 0.110 0.331   0.50   1.61   7.20  12.15   4.32   0.53 
 35- 45 0.181 0.291 0.364 0.110 0.344   0.50   1.61   7.20  12.40   4.44   0.53 
 45- 67 0.096 0.169 0.404 0.073 0.290   0.27   1.51   7.00  10.67   4.47   0.05 
 67- 90 0.096 0.169 0.404 0.073 0.195   0.27   1.51   7.00   7.63   4.53   0.05 
                                                                                
TOT- 90  13.3  21.7  34.0   8.4  25.6  <--cm   -  kg/ha-->  151.4   62.4  51964 
SOIL ALBEDO    : 0.09      EVAPORATION LIMIT : 6.00         MIN. FACTOR  : 1.00 
RUNOFF CURVE # :76.00      DRAINAGE RATE     : 0.60         FERT. FACTOR : 1.00 
                                                                                
 Maize      CULTIVAR :CI0003-FNC3056            ECOTYPE :IB0001                 
 P1     : 233.00  P2     : 0.5000  P5     : 976.00                              
 G2     : 956.00  G3     :  7.500  PHINT  : 45.600                              


*SIMULATED CROP AND SOIL STATUS AT MAIN DEVELOPMENT STAGES

 RUN NO.     2     P04/07                  

        CROP GROWTH     BIOMASS         LEAF   CROP N     STRESS      STRESS                                           
   DATE  AGE STAGE        kg/ha    LAI   NUM  kg/ha  %   H2O  Nitr Phos1 Phos2  RSTG                                   
 ------  --- ----------   -----  -----  ----  ---  ---  ----  ----  ----  ----  ----                                   
  8 MAR    0 Start Sim        0   0.00   0.0    0  0.0  0.00  0.00  0.00  0.00     7
  7 APR    0 Sowing           0   0.00   0.0    0  0.0  0.00  0.00  0.00  0.00     8
  8 APR    1 Germinate        0   0.00   0.0    0  0.0  0.00  0.00  0.00  0.00     9
 13 APR    6 Emergence       25   0.00   2.1    1  4.4  0.00  0.01  0.00  0.00     1
 25 APR   18 End Juveni      91   0.20   7.6    3  3.2  0.00  0.00  0.00  0.00     2
  3 MAY   26 Floral Ini     342   0.61  10.8   12  3.6  0.00  0.00  0.00  0.00     3
  9 JUN   63 75% Silkin    6401   3.34  22.4  129  2.0  0.14  0.00  0.00  0.00     4
 20 JUN   74 Beg Gr Fil    8735   3.34  22.4  130  1.5  0.00  0.00  0.00  0.00     5
  5 AUG  120 End Gr Fil   15395   1.34  22.4  194  1.3  0.41  0.00  0.00  0.00     6
  8 AUG  123 Maturity     15395   1.34  22.4  194  1.3  0.96  0.00  0.00  0.00    10
  8 AUG  123 Harvest      15395   1.34  22.4  194  1.3  0.00  0.00  0.00  0.00    10


*MAIN GROWTH AND DEVELOPMENT VARIABLES

@     VARIABLE                                         SIMULATED     MEASURED
      --------                                         ---------     --------
      Anthesis day (dap)                                      63          -99
      Physiological maturity day (dap)                       123          -99
      Yield at harvest maturity (kg [dm]/ha)                8041          -99
      Number at maturity (no/m2)                            2882          -99
      Unit wt at maturity (g [dm]/unit)                   0.2790          -99
      Number at maturity (no/unit)                         464.8          -99
      Tops weight at maturity (kg [dm]/ha)                 15395          -99
      By-product produced (stalk) at maturity (kg[dm]/ha    7416          -99
      Leaf area index, maximum                              3.34          -99
      Harvest index at maturity                            0.522          -99
      Grain N at maturity (kg/ha)                            141          -99
      Tops N at maturity (kg/ha)                             194          -99
      Stem N at maturity (kg/ha)                              53          -99
      Grain N at maturity (%)                                1.8          -99
      Tops weight at anthesis (kg [dm]/ha)                  6151          -99
      Tops N at anthesis (kg/ha)                             126          -99
      Leaf number per stem at maturity                     22.43          -99
      Emergence day (dap)                                      6          -99


*ENVIRONMENTAL AND STRESS FACTORS

 |-----Development Phase------|--------------------------------------Environment--------------------------------------|-----------------Stress-----------------|
                              |---------------Average--------------|-----Cumulative-----|--------Count of days--------|          (0=Min, 1=Max Stress)         |
                         Time  Temp  Temp  Temp Solar Photop                Evapo    Pot TMIN TMIN TMAX TMAX TMAX RAIN|----Water----|---Nitrogen--|-Phosphorus-|
                         Span   Max   Min  Mean   Rad  [day]    CO2   Rain  Trans     ET   <    <    >    >    >    >   Photo         Photo         Photo
                         days    邂    邂    邂 MJ/m2     hr    ppm     mm     mm     mm  0邂  2邂 30邂 32邂 34邂  0mm  synth Growth  synth Growth  synth Growth
----------------------------------------------------------------------------------------------------------------------------------------------------------------
 Emergence-End Juvenile    12  31.7  19.5  25.6  16.4  23.74  386.9    8.2   18.2   55.8    0    0   10    3    0    2  0.000  0.000  0.002  0.004  0.000  0.000
 End Juvenil-Floral Init    8  31.6  19.9  25.8  16.6  24.00  386.9   43.2   21.2   36.8    0    0    5    4    2    6  0.000  0.000  0.000  0.001  0.000  0.000
 Floral Init-End Lf Grow   37  31.5  18.9  25.2  16.6  24.00  387.0  123.4  133.3  152.0    0    0   28   10    1   15  0.091  0.141  0.000  0.000  0.000  0.000
 End Lf Grth-Beg Grn Fil   11  29.6  18.9  24.3  15.3  24.00  387.2   37.2   39.4   39.6    0    0    3    0    0    5  0.000  0.000  0.000  0.000  0.000  0.000
 Grain Filling Phase       46  30.9  18.1  24.5  16.6  24.00  387.4   72.6  119.7  184.4    0    0   26   14    4    7  0.348  0.389  0.000  0.000  0.000  0.000


 Planting to Harvest      123  31.1  18.8  24.9  16.5  23.74  387.1  308.3  350.2  508.5    0    0   79   32    7   41  0.180  0.211  0.000  0.000  0.000  0.000
----------------------------------------------------------------------------------------------------------------------------------------------------------------


*Resource Productivity
 Growing season length: 123 days 

 Precipitation during growing season       308.3 mm[rain]
   Dry Matter Productivity                  4.99 kg[DM]/m3[rain]          =   49.9 kg[DM]/ha per mm[rain]
   Yield Productivity                       2.61 kg[grain yield]/m3[rain] =   26.1 kg[yield]/ha per mm[rain]

 Evapotranspiration during growing season  350.2 mm[ET]
   Dry Matter Productivity                  4.40 kg[DM]/m3[ET]            =   44.0 kg[DM]/ha per mm[ET]
   Yield Productivity                       2.30 kg[grain yield]/m3[ET]   =   23.0 kg[yield]/ha per mm[ET]

 Transpiration during growing season       239.1 mm[EP]
   Dry Matter Productivity                  6.44 kg[DM]/m3[EP]            =   64.4 kg[DM]/ha per mm[EP]
   Yield Productivity                       3.36 kg[grain yield]/m3[EP]   =   33.6 kg[yield]/ha per mm[EP]

 N applied during growing season            161. kg[N applied]/ha
   Dry Matter Productivity                  95.6 kg[DM]/kg[N applied]
   Yield Productivity                       49.9 kg[yield]/kg[N applied]

 N uptake during growing season              213 kg[N uptake]/ha
   Dry Matter Productivity                  72.3 kg[DM]/kg[N uptake]
   Yield Productivity                       37.8 kg[yield]/kg[N uptake]

--------------------------------------------------------------------------------------------------------------

                     Maize YIELD :     8041 kg/ha    [Dry weight] 

**************************************************************************************************************

*DSSAT Cropping System Model Ver. 4.6.1.000 -release      OCT 02, 2017; 14:04:36
                                                                                
*RUN   3        : P04/12                    MZCER046 ANBU2009    3              
 MODEL          : MZCER046 - Maize                                              
 EXPERIMENT     : ANBU2009 MZ  Analisis a침os de bajo rendimiento Buga          
 DATA PATH      : C:\DSSAT46\maize\                                             
 TREATMENT  3   : P04/12                    MZCER046                            
                                                                                
                                                                                
 CROP           : Maize            CULTIVAR : FNC3056          ECOTYPE :IB0001  
 STARTING DATE  : MAR 13 2009                                                   
 PLANTING DATE  : APR 12 2009        PLANTS/m2 :  6.2     ROW SPACING :  80.cm  
 WEATHER        : CUNI   2009                                                   
 SOIL           : CCBUGA2017     TEXTURE : CL    -   Suelo Buga MADR Fase I     
 SOIL INITIAL C : DEPTH: 90cm EXTR. H2O: 83.9mm  NO3:151.4kg/ha  NH4: 62.4kg/ha 
 WATER BALANCE  : RAINFED                                                       
 IRRIGATION     : NOT IRRIGATED                                                 
 NITROGEN BAL.  : SOIL-N & N-UPTAKE SIMULATION; NO N-FIXATION                   
 N-FERTILIZER   :      161 kg/ha IN     5 APPLICATIONS                          
 RESIDUE/MANURE : INITIAL :     0 kg/ha ;       0 kg/ha IN     0 APPLICATIONS   
 ENVIRONM. OPT. : DAYL=    0.00  SRAD=    0.00  TMAX=    0.00  TMIN=    0.00    
                  RAIN=    0.00  CO2 =    0.00  DEW =    0.00  WIND=    0.00    
 SIMULATION OPT : WATER   :Y  NITROGEN:Y  N-FIX:N  PHOSPH :N  PESTS  :N         
                  PHOTO   :C  ET      :R  INFIL:S  HYDROL :R  SOM    :G         
                  CO2 387ppm  NSWIT   :1  EVAP :S  SOIL   :2  STEMP  :D         
 MANAGEMENT OPT : PLANTING:R  IRRIG   :N  FERT :D  RESIDUE:R  HARVEST:M         
                  WEATHER :M  TILLAGE :N                                        
                                                                                
*SUMMARY OF SOIL AND GENETIC INPUT PARAMETERS                                   
                                                                                
   SOIL LOWER UPPER   SAT  EXTR  INIT   ROOT   BULK     pH    NO3    NH4    ORG 
  DEPTH LIMIT LIMIT    SW    SW    SW   DIST   DENS                          C  
   cm   cm3/cm3    cm3/cm3    cm3/cm3         g/cm3         ugN/g  ugN/g     %  
------------------------------------------------------------------------------- 
  0-  5 0.215 0.331 0.341 0.116 0.319   1.00   1.68   6.70  11.90   4.21   0.75 
  5- 15 0.215 0.331 0.341 0.116 0.319   1.00   1.68   6.70  11.90   4.21   0.75 
 15- 25 0.215 0.331 0.341 0.116 0.319   1.00   1.68   6.70  11.90   4.21   0.75 
 25- 35 0.181 0.291 0.364 0.110 0.331   0.50   1.61   7.20  12.15   4.32   0.53 
 35- 45 0.181 0.291 0.364 0.110 0.344   0.50   1.61   7.20  12.40   4.44   0.53 
 45- 67 0.096 0.169 0.404 0.073 0.290   0.27   1.51   7.00  10.67   4.47   0.05 
 67- 90 0.096 0.169 0.404 0.073 0.195   0.27   1.51   7.00   7.63   4.53   0.05 
                                                                                
TOT- 90  13.3  21.7  34.0   8.4  25.6  <--cm   -  kg/ha-->  151.4   62.4  51964 
SOIL ALBEDO    : 0.09      EVAPORATION LIMIT : 6.00         MIN. FACTOR  : 1.00 
RUNOFF CURVE # :76.00      DRAINAGE RATE     : 0.60         FERT. FACTOR : 1.00 
                                                                                
 Maize      CULTIVAR :CI0003-FNC3056            ECOTYPE :IB0001                 
 P1     : 233.00  P2     : 0.5000  P5     : 976.00                              
 G2     : 956.00  G3     :  7.500  PHINT  : 45.600                              


*SIMULATED CROP AND SOIL STATUS AT MAIN DEVELOPMENT STAGES

 RUN NO.     3     P04/12                  

        CROP GROWTH     BIOMASS         LEAF   CROP N     STRESS      STRESS                                           
   DATE  AGE STAGE        kg/ha    LAI   NUM  kg/ha  %   H2O  Nitr Phos1 Phos2  RSTG                                   
 ------  --- ----------   -----  -----  ----  ---  ---  ----  ----  ----  ----  ----                                   
 13 MAR    0 Start Sim        0   0.00   0.0    0  0.0  0.00  0.00  0.00  0.00     7
 12 APR    0 Sowing           0   0.00   0.0    0  0.0  0.00  0.00  0.00  0.00     8
 13 APR    1 Germinate        0   0.00   0.0    0  0.0  0.00  0.00  0.00  0.00     9
 18 APR    6 Emergence       25   0.00   2.1    1  4.4  0.00  0.01  0.00  0.00     1
 30 APR   18 End Juveni      83   0.18   7.5    3  3.6  0.00  0.00  0.00  0.00     2
  8 MAY   26 Floral Ini     328   0.59  10.7   12  3.6  0.00  0.00  0.00  0.00     3
 14 JUN   63 75% Silkin    6464   3.64  22.4  130  2.0  0.11  0.00  0.00  0.00     4
 25 JUN   74 Beg Gr Fil    8785   3.48  22.4  132  1.5  0.00  0.00  0.00  0.00     5
  9 AUG  119 End Gr Fil   14587   1.22  22.4  181  1.2  0.48  0.00  0.00  0.00     6
 12 AUG  122 Maturity     14587   1.22  22.4  181  1.2  0.98  0.00  0.00  0.00    10
 12 AUG  122 Harvest      14587   1.22  22.4  181  1.2  0.00  0.00  0.00  0.00    10


*MAIN GROWTH AND DEVELOPMENT VARIABLES

@     VARIABLE                                         SIMULATED     MEASURED
      --------                                         ---------     --------
      Anthesis day (dap)                                      63          -99
      Physiological maturity day (dap)                       122          -99
      Yield at harvest maturity (kg [dm]/ha)                7389          -99
      Number at maturity (no/m2)                            2850          -99
      Unit wt at maturity (g [dm]/unit)                   0.2593          -99
      Number at maturity (no/unit)                         459.7          -99
      Tops weight at maturity (kg [dm]/ha)                 14587          -99
      By-product produced (stalk) at maturity (kg[dm]/ha    7259          -99
      Leaf area index, maximum                              3.64          -99
      Harvest index at maturity                            0.507          -99
      Grain N at maturity (kg/ha)                            131          -99
      Tops N at maturity (kg/ha)                             181          -99
      Stem N at maturity (kg/ha)                              50          -99
      Grain N at maturity (%)                                1.8          -99
      Tops weight at anthesis (kg [dm]/ha)                  6224          -99
      Tops N at anthesis (kg/ha)                             126          -99
      Leaf number per stem at maturity                     22.40          -99
      Emergence day (dap)                                      6          -99


*ENVIRONMENTAL AND STRESS FACTORS

 |-----Development Phase------|--------------------------------------Environment--------------------------------------|-----------------Stress-----------------|
                              |---------------Average--------------|-----Cumulative-----|--------Count of days--------|          (0=Min, 1=Max Stress)         |
                         Time  Temp  Temp  Temp Solar Photop                Evapo    Pot TMIN TMIN TMAX TMAX TMAX RAIN|----Water----|---Nitrogen--|-Phosphorus-|
                         Span   Max   Min  Mean   Rad  [day]    CO2   Rain  Trans     ET   <    <    >    >    >    >   Photo         Photo         Photo
                         days    邂    邂    邂 MJ/m2     hr    ppm     mm     mm     mm  0邂  2邂 30邂 32邂 34邂  0mm  synth Growth  synth Growth  synth Growth
----------------------------------------------------------------------------------------------------------------------------------------------------------------
 Emergence-End Juvenile    12  32.0  20.0  26.0  15.4  24.00  386.9   15.8   14.2   52.5    0    0    8    4    2    3  0.000  0.000  0.002  0.004  0.000  0.000
 End Juvenil-Floral Init    8  30.0  19.4  24.7  15.8  24.00  386.9   35.2   31.4   34.5    0    0    5    1    0    5  0.000  0.000  0.000  0.001  0.000  0.000
 Floral Init-End Lf Grow   37  31.4  18.9  25.1  16.3  24.00  387.1  133.8  126.6  149.2    0    0   26   10    1   17  0.049  0.111  0.000  0.000  0.000  0.000
 End Lf Grth-Beg Grn Fil   11  29.2  18.3  23.8  14.8  24.00  387.3   24.8   37.7   37.9    0    0    3    0    0    3  0.000  0.000  0.000  0.000  0.000  0.000
 Grain Filling Phase       45  31.2  18.2  24.7  17.1  24.00  387.4   73.8  109.9  186.1    0    0   28   15    4    7  0.422  0.463  0.000  0.000  0.000  0.000


 Planting to Harvest      122  31.2  18.7  25.0  16.5  23.95  387.2  291.6  338.3  506.6    0    0   79   34    7   37  0.194  0.228  0.000  0.000  0.000  0.000
----------------------------------------------------------------------------------------------------------------------------------------------------------------


*Resource Productivity
 Growing season length: 122 days 

 Precipitation during growing season       291.6 mm[rain]
   Dry Matter Productivity                  5.00 kg[DM]/m3[rain]          =   50.0 kg[DM]/ha per mm[rain]
   Yield Productivity                       2.53 kg[grain yield]/m3[rain] =   25.3 kg[yield]/ha per mm[rain]

 Evapotranspiration during growing season  338.3 mm[ET]
   Dry Matter Productivity                  4.31 kg[DM]/m3[ET]            =   43.1 kg[DM]/ha per mm[ET]
   Yield Productivity                       2.18 kg[grain yield]/m3[ET]   =   21.8 kg[yield]/ha per mm[ET]

 Transpiration during growing season       232.2 mm[EP]
   Dry Matter Productivity                  6.28 kg[DM]/m3[EP]            =   62.8 kg[DM]/ha per mm[EP]
   Yield Productivity                       3.18 kg[grain yield]/m3[EP]   =   31.8 kg[yield]/ha per mm[EP]

 N applied during growing season            161. kg[N applied]/ha
   Dry Matter Productivity                  90.6 kg[DM]/kg[N applied]
   Yield Productivity                       45.9 kg[yield]/kg[N applied]

 N uptake during growing season              200 kg[N uptake]/ha
   Dry Matter Productivity                  72.9 kg[DM]/kg[N uptake]
   Yield Productivity                       36.9 kg[yield]/kg[N uptake]

--------------------------------------------------------------------------------------------------------------

                     Maize YIELD :     7389 kg/ha    [Dry weight] 

**************************************************************************************************************

*DSSAT Cropping System Model Ver. 4.6.1.000 -release      OCT 02, 2017; 14:04:36
                                                                                
*RUN   4        : P04/17                    MZCER046 ANBU2009    4              
 MODEL          : MZCER046 - Maize                                              
 EXPERIMENT     : ANBU2009 MZ  Analisis a침os de bajo rendimiento Buga          
 DATA PATH      : C:\DSSAT46\maize\                                             
 TREATMENT  4   : P04/17                    MZCER046                            
                                                                                
                                                                                
 CROP           : Maize            CULTIVAR : FNC3056          ECOTYPE :IB0001  
 STARTING DATE  : MAR 18 2009                                                   
 PLANTING DATE  : APR 17 2009        PLANTS/m2 :  6.2     ROW SPACING :  80.cm  
 WEATHER        : CUNI   2009                                                   
 SOIL           : CCBUGA2017     TEXTURE : CL    -   Suelo Buga MADR Fase I     
 SOIL INITIAL C : DEPTH: 90cm EXTR. H2O: 83.9mm  NO3:151.4kg/ha  NH4: 62.4kg/ha 
 WATER BALANCE  : RAINFED                                                       
 IRRIGATION     : NOT IRRIGATED                                                 
 NITROGEN BAL.  : SOIL-N & N-UPTAKE SIMULATION; NO N-FIXATION                   
 N-FERTILIZER   :      161 kg/ha IN     5 APPLICATIONS                          
 RESIDUE/MANURE : INITIAL :     0 kg/ha ;       0 kg/ha IN     0 APPLICATIONS   
 ENVIRONM. OPT. : DAYL=    0.00  SRAD=    0.00  TMAX=    0.00  TMIN=    0.00    
                  RAIN=    0.00  CO2 =    0.00  DEW =    0.00  WIND=    0.00    
 SIMULATION OPT : WATER   :Y  NITROGEN:Y  N-FIX:N  PHOSPH :N  PESTS  :N         
                  PHOTO   :C  ET      :R  INFIL:S  HYDROL :R  SOM    :G         
                  CO2 387ppm  NSWIT   :1  EVAP :S  SOIL   :2  STEMP  :D         
 MANAGEMENT OPT : PLANTING:R  IRRIG   :N  FERT :D  RESIDUE:R  HARVEST:M         
                  WEATHER :M  TILLAGE :N                                        
                                                                                
*SUMMARY OF SOIL AND GENETIC INPUT PARAMETERS                                   
                                                                                
   SOIL LOWER UPPER   SAT  EXTR  INIT   ROOT   BULK     pH    NO3    NH4    ORG 
  DEPTH LIMIT LIMIT    SW    SW    SW   DIST   DENS                          C  
   cm   cm3/cm3    cm3/cm3    cm3/cm3         g/cm3         ugN/g  ugN/g     %  
------------------------------------------------------------------------------- 
  0-  5 0.215 0.331 0.341 0.116 0.319   1.00   1.68   6.70  11.90   4.21   0.75 
  5- 15 0.215 0.331 0.341 0.116 0.319   1.00   1.68   6.70  11.90   4.21   0.75 
 15- 25 0.215 0.331 0.341 0.116 0.319   1.00   1.68   6.70  11.90   4.21   0.75 
 25- 35 0.181 0.291 0.364 0.110 0.331   0.50   1.61   7.20  12.15   4.32   0.53 
 35- 45 0.181 0.291 0.364 0.110 0.344   0.50   1.61   7.20  12.40   4.44   0.53 
 45- 67 0.096 0.169 0.404 0.073 0.290   0.27   1.51   7.00  10.67   4.47   0.05 
 67- 90 0.096 0.169 0.404 0.073 0.195   0.27   1.51   7.00   7.63   4.53   0.05 
                                                                                
TOT- 90  13.3  21.7  34.0   8.4  25.6  <--cm   -  kg/ha-->  151.4   62.4  51964 
SOIL ALBEDO    : 0.09      EVAPORATION LIMIT : 6.00         MIN. FACTOR  : 1.00 
RUNOFF CURVE # :76.00      DRAINAGE RATE     : 0.60         FERT. FACTOR : 1.00 
                                                                                
 Maize      CULTIVAR :CI0003-FNC3056            ECOTYPE :IB0001                 
 P1     : 233.00  P2     : 0.5000  P5     : 976.00                              
 G2     : 956.00  G3     :  7.500  PHINT  : 45.600                              


*SIMULATED CROP AND SOIL STATUS AT MAIN DEVELOPMENT STAGES

 RUN NO.     4     P04/17                  

        CROP GROWTH     BIOMASS         LEAF   CROP N     STRESS      STRESS                                           
   DATE  AGE STAGE        kg/ha    LAI   NUM  kg/ha  %   H2O  Nitr Phos1 Phos2  RSTG                                   
 ------  --- ----------   -----  -----  ----  ---  ---  ----  ----  ----  ----  ----                                   
 18 MAR    0 Start Sim        0   0.00   0.0    0  0.0  0.00  0.00  0.00  0.00     7
 17 APR    0 Sowing           0   0.00   0.0    0  0.0  0.00  0.00  0.00  0.00     8
 18 APR    1 Germinate        0   0.00   0.0    0  0.0  0.00  0.00  0.00  0.00     9
 23 APR    6 Emergence       25   0.00   2.1    1  4.4  0.00  0.01  0.00  0.00     1
  5 MAY   18 End Juveni      69   0.15   7.5    2  3.2  0.00  0.00  0.00  0.00     2
 13 MAY   26 Floral Ini     393   0.68  10.6   14  3.6  0.00  0.00  0.00  0.00     3
 19 JUN   63 75% Silkin    6742   3.87  22.3  133  2.0  0.08  0.00  0.00  0.00     4
 30 JUN   74 Beg Gr Fil    8897   3.65  22.3  134  1.5  0.00  0.00  0.00  0.00     5
 14 AUG  119 End Gr Fil   13864   1.12  22.3  168  1.2  0.54  0.00  0.00  0.00     6
 16 AUG  121 Maturity     13864   1.12  22.3  168  1.2  0.85  0.00  0.00  0.00    10
 16 AUG  121 Harvest      13864   1.12  22.3  168  1.2  0.00  0.00  0.00  0.00    10


*MAIN GROWTH AND DEVELOPMENT VARIABLES

@     VARIABLE                                         SIMULATED     MEASURED
      --------                                         ---------     --------
      Anthesis day (dap)                                      63          -99
      Physiological maturity day (dap)                       121          -99
      Yield at harvest maturity (kg [dm]/ha)                6415          -99
      Number at maturity (no/m2)                            2714          -99
      Unit wt at maturity (g [dm]/unit)                   0.2364          -99
      Number at maturity (no/unit)                         437.7          -99
      Tops weight at maturity (kg [dm]/ha)                 13864          -99
      By-product produced (stalk) at maturity (kg[dm]/ha    7513          -99
      Leaf area index, maximum                              3.96          -99
      Harvest index at maturity                            0.463          -99
      Grain N at maturity (kg/ha)                            114          -99
      Tops N at maturity (kg/ha)                             168          -99
      Stem N at maturity (kg/ha)                              54          -99
      Grain N at maturity (%)                                1.8          -99
      Tops weight at anthesis (kg [dm]/ha)                  6524          -99
      Tops N at anthesis (kg/ha)                             131          -99
      Leaf number per stem at maturity                     22.30          -99
      Emergence day (dap)                                      6          -99


*ENVIRONMENTAL AND STRESS FACTORS

 |-----Development Phase------|--------------------------------------Environment--------------------------------------|-----------------Stress-----------------|
                              |---------------Average--------------|-----Cumulative-----|--------Count of days--------|          (0=Min, 1=Max Stress)         |
                         Time  Temp  Temp  Temp Solar Photop                Evapo    Pot TMIN TMIN TMAX TMAX TMAX RAIN|----Water----|---Nitrogen--|-Phosphorus-|
                         Span   Max   Min  Mean   Rad  [day]    CO2   Rain  Trans     ET   <    <    >    >    >    >   Photo         Photo         Photo
                         days    邂    邂    邂 MJ/m2     hr    ppm     mm     mm     mm  0邂  2邂 30邂 32邂 34邂  0mm  synth Growth  synth Growth  synth Growth
----------------------------------------------------------------------------------------------------------------------------------------------------------------
 Emergence-End Juvenile    12  31.2  19.8  25.5  15.6  24.00  386.9   51.0   28.2   53.1    0    0    6    4    2    8  0.000  0.000  0.002  0.004  0.000  0.000
 End Juvenil-Floral Init    8  31.1  18.4  24.7  18.7  24.00  386.9    4.8   22.8   40.4    0    0    7    0    0    3  0.000  0.000  0.000  0.000  0.000  0.000
 Floral Init-End Lf Grow   37  31.2  19.0  25.1  16.0  24.00  387.1  148.0  128.7  145.6    0    0   24   10    1   15  0.026  0.077  0.000  0.000  0.000  0.000
 End Lf Grth-Beg Grn Fil   11  28.3  18.1  23.2  13.8  24.00  387.3   25.1   34.7   34.9    0    0    2    0    0    3  0.000  0.000  0.000  0.000  0.000  0.000
 Grain Filling Phase       45  31.8  18.3  25.1  17.3  24.00  387.4   65.1  103.8  189.9    0    0   32   19    4    7  0.492  0.540  0.000  0.000  0.000  0.000


 Planting to Harvest      121  31.2  18.7  25.0  16.5  24.00  387.2  294.0  329.8  500.0    0    0   78   37    8   36  0.197  0.232  0.000  0.000  0.000  0.000
----------------------------------------------------------------------------------------------------------------------------------------------------------------


*Resource Productivity
 Growing season length: 121 days 

 Precipitation during growing season       294.0 mm[rain]
   Dry Matter Productivity                  4.72 kg[DM]/m3[rain]          =   47.2 kg[DM]/ha per mm[rain]
   Yield Productivity                       2.18 kg[grain yield]/m3[rain] =   21.8 kg[yield]/ha per mm[rain]

 Evapotranspiration during growing season  329.8 mm[ET]
   Dry Matter Productivity                  4.20 kg[DM]/m3[ET]            =   42.0 kg[DM]/ha per mm[ET]
   Yield Productivity                       1.95 kg[grain yield]/m3[ET]   =   19.5 kg[yield]/ha per mm[ET]

 Transpiration during growing season       231.4 mm[EP]
   Dry Matter Productivity                  5.99 kg[DM]/m3[EP]            =   59.9 kg[DM]/ha per mm[EP]
   Yield Productivity                       2.77 kg[grain yield]/m3[EP]   =   27.7 kg[yield]/ha per mm[EP]

 N applied during growing season            161. kg[N applied]/ha
   Dry Matter Productivity                  86.1 kg[DM]/kg[N applied]
   Yield Productivity                       39.8 kg[yield]/kg[N applied]

 N uptake during growing season              189 kg[N uptake]/ha
   Dry Matter Productivity                  73.4 kg[DM]/kg[N uptake]
   Yield Productivity                       33.9 kg[yield]/kg[N uptake]

--------------------------------------------------------------------------------------------------------------

                     Maize YIELD :     6415 kg/ha    [Dry weight] 

**************************************************************************************************************

*DSSAT Cropping System Model Ver. 4.6.1.000 -release      OCT 02, 2017; 14:04:36
                                                                                
*RUN   5        : P04/22                    MZCER046 ANBU2009    5              
 MODEL          : MZCER046 - Maize                                              
 EXPERIMENT     : ANBU2009 MZ  Analisis a침os de bajo rendimiento Buga          
 DATA PATH      : C:\DSSAT46\maize\                                             
 TREATMENT  5   : P04/22                    MZCER046                            
                                                                                
                                                                                
 CROP           : Maize            CULTIVAR : FNC3056          ECOTYPE :IB0001  
 STARTING DATE  : MAR 23 2009                                                   
 PLANTING DATE  : APR 22 2009        PLANTS/m2 :  6.2     ROW SPACING :  80.cm  
 WEATHER        : CUNI   2009                                                   
 SOIL           : CCBUGA2017     TEXTURE : CL    -   Suelo Buga MADR Fase I     
 SOIL INITIAL C : DEPTH: 90cm EXTR. H2O: 83.9mm  NO3:151.4kg/ha  NH4: 62.4kg/ha 
 WATER BALANCE  : RAINFED                                                       
 IRRIGATION     : NOT IRRIGATED                                                 
 NITROGEN BAL.  : SOIL-N & N-UPTAKE SIMULATION; NO N-FIXATION                   
 N-FERTILIZER   :      161 kg/ha IN     5 APPLICATIONS                          
 RESIDUE/MANURE : INITIAL :     0 kg/ha ;       0 kg/ha IN     0 APPLICATIONS   
 ENVIRONM. OPT. : DAYL=    0.00  SRAD=    0.00  TMAX=    0.00  TMIN=    0.00    
                  RAIN=    0.00  CO2 =    0.00  DEW =    0.00  WIND=    0.00    
 SIMULATION OPT : WATER   :Y  NITROGEN:Y  N-FIX:N  PHOSPH :N  PESTS  :N         
                  PHOTO   :C  ET      :R  INFIL:S  HYDROL :R  SOM    :G         
                  CO2 387ppm  NSWIT   :1  EVAP :S  SOIL   :2  STEMP  :D         
 MANAGEMENT OPT : PLANTING:R  IRRIG   :N  FERT :D  RESIDUE:R  HARVEST:M         
                  WEATHER :M  TILLAGE :N                                        
                                                                                
*SUMMARY OF SOIL AND GENETIC INPUT PARAMETERS                                   
                                                                                
   SOIL LOWER UPPER   SAT  EXTR  INIT   ROOT   BULK     pH    NO3    NH4    ORG 
  DEPTH LIMIT LIMIT    SW    SW    SW   DIST   DENS                          C  
   cm   cm3/cm3    cm3/cm3    cm3/cm3         g/cm3         ugN/g  ugN/g     %  
------------------------------------------------------------------------------- 
  0-  5 0.215 0.331 0.341 0.116 0.319   1.00   1.68   6.70  11.90   4.21   0.75 
  5- 15 0.215 0.331 0.341 0.116 0.319   1.00   1.68   6.70  11.90   4.21   0.75 
 15- 25 0.215 0.331 0.341 0.116 0.319   1.00   1.68   6.70  11.90   4.21   0.75 
 25- 35 0.181 0.291 0.364 0.110 0.331   0.50   1.61   7.20  12.15   4.32   0.53 
 35- 45 0.181 0.291 0.364 0.110 0.344   0.50   1.61   7.20  12.40   4.44   0.53 
 45- 67 0.096 0.169 0.404 0.073 0.290   0.27   1.51   7.00  10.67   4.47   0.05 
 67- 90 0.096 0.169 0.404 0.073 0.195   0.27   1.51   7.00   7.63   4.53   0.05 
                                                                                
TOT- 90  13.3  21.7  34.0   8.4  25.6  <--cm   -  kg/ha-->  151.4   62.4  51964 
SOIL ALBEDO    : 0.09      EVAPORATION LIMIT : 6.00         MIN. FACTOR  : 1.00 
RUNOFF CURVE # :76.00      DRAINAGE RATE     : 0.60         FERT. FACTOR : 1.00 
                                                                                
 Maize      CULTIVAR :CI0003-FNC3056            ECOTYPE :IB0001                 
 P1     : 233.00  P2     : 0.5000  P5     : 976.00                              
 G2     : 956.00  G3     :  7.500  PHINT  : 45.600                              


*SIMULATED CROP AND SOIL STATUS AT MAIN DEVELOPMENT STAGES

 RUN NO.     5     P04/22                  

        CROP GROWTH     BIOMASS         LEAF   CROP N     STRESS      STRESS                                           
   DATE  AGE STAGE        kg/ha    LAI   NUM  kg/ha  %   H2O  Nitr Phos1 Phos2  RSTG                                   
 ------  --- ----------   -----  -----  ----  ---  ---  ----  ----  ----  ----  ----                                   
 23 MAR    0 Start Sim        0   0.00   0.0    0  0.0  0.00  0.00  0.00  0.00     7
 22 APR    0 Sowing           0   0.00   0.0    0  0.0  0.00  0.00  0.00  0.00     8
 23 APR    1 Germinate        0   0.00   0.0    0  0.0  0.00  0.00  0.00  0.00     9
 27 APR    5 Emergence       25   0.00   2.2    1  4.4  0.00  0.01  0.00  0.00     1
 10 MAY   18 End Juveni     100   0.21   7.7    3  3.3  0.00  0.00  0.00  0.00     2
 18 MAY   26 Floral Ini     459   0.78  10.8   17  3.6  0.00  0.00  0.00  0.00     3
 25 JUN   64 75% Silkin    7132   4.09  22.5  139  1.9  0.02  0.00  0.00  0.00     4
  6 JUL   75 Beg Gr Fil    9544   3.87  22.5  140  1.5  0.00  0.00  0.00  0.00     5
 18 AUG  118 End Gr Fil   14093   1.15  22.5  168  1.2  0.59  0.00  0.00  0.00     6
 21 AUG  121 Maturity     14093   1.15  22.5  168  1.2  0.95  0.00  0.00  0.00    10
 21 AUG  121 Harvest      14093   1.15  22.5  168  1.2  0.00  0.00  0.00  0.00    10


*MAIN GROWTH AND DEVELOPMENT VARIABLES

@     VARIABLE                                         SIMULATED     MEASURED
      --------                                         ---------     --------
      Anthesis day (dap)                                      64          -99
      Physiological maturity day (dap)                       121          -99
      Yield at harvest maturity (kg [dm]/ha)                6195          -99
      Number at maturity (no/m2)                            2930          -99
      Unit wt at maturity (g [dm]/unit)                   0.2115          -99
      Number at maturity (no/unit)                         472.5          -99
      Tops weight at maturity (kg [dm]/ha)                 14093          -99
      By-product produced (stalk) at maturity (kg[dm]/ha    7968          -99
      Leaf area index, maximum                              4.27          -99
      Harvest index at maturity                            0.440          -99
      Grain N at maturity (kg/ha)                            111          -99
      Tops N at maturity (kg/ha)                             168          -99
      Stem N at maturity (kg/ha)                              57          -99
      Grain N at maturity (%)                                1.8          -99
      Tops weight at anthesis (kg [dm]/ha)                  6960          -99
      Tops N at anthesis (kg/ha)                             139          -99
      Leaf number per stem at maturity                     22.48          -99
      Emergence day (dap)                                      5          -99


*ENVIRONMENTAL AND STRESS FACTORS

 |-----Development Phase------|--------------------------------------Environment--------------------------------------|-----------------Stress-----------------|
                              |---------------Average--------------|-----Cumulative-----|--------Count of days--------|          (0=Min, 1=Max Stress)         |
                         Time  Temp  Temp  Temp Solar Photop                Evapo    Pot TMIN TMIN TMAX TMAX TMAX RAIN|----Water----|---Nitrogen--|-Phosphorus-|
                         Span   Max   Min  Mean   Rad  [day]    CO2   Rain  Trans     ET   <    <    >    >    >    >   Photo         Photo         Photo
                         days    邂    邂    邂 MJ/m2     hr    ppm     mm     mm     mm  0邂  2邂 30邂 32邂 34邂  0mm  synth Growth  synth Growth  synth Growth
----------------------------------------------------------------------------------------------------------------------------------------------------------------
 Emergence-End Juvenile    13  30.6  19.4  25.0  16.3  24.00  386.9   42.1   35.5   59.7    0    0    8    2    1    7  0.000  0.000  0.002  0.006  0.000  0.000
 End Juvenil-Floral Init    8  31.4  18.1  24.8  17.4  24.00  387.0    5.3   15.6   37.3    0    0    6    1    0    4  0.000  0.000  0.000  0.000  0.000  0.000
 Floral Init-End Lf Grow   38  30.7  19.0  24.8  15.5  24.00  387.1  153.3  132.9  143.4    0    0   21    9    1   16  0.000  0.016  0.000  0.000  0.000  0.000
 End Lf Grth-Beg Grn Fil   11  28.7  18.1  23.4  14.8  24.00  387.3   56.8   37.3   37.5    0    0    1    0    0    4  0.000  0.000  0.000  0.000  0.000  0.000
 Grain Filling Phase       43  32.2  18.4  25.3  17.7  24.00  387.4   33.2   95.8  186.1    0    0   35   21    5    6  0.539  0.591  0.000  0.000  0.000  0.000


 Planting to Harvest      121  31.2  18.7  24.9  16.5  24.00  387.2  306.3  327.2  499.2    0    0   78   35    8   39  0.207  0.231  0.000  0.001  0.000  0.000
----------------------------------------------------------------------------------------------------------------------------------------------------------------


*Resource Productivity
 Growing season length: 121 days 

 Precipitation during growing season       306.3 mm[rain]
   Dry Matter Productivity                  4.60 kg[DM]/m3[rain]          =   46.0 kg[DM]/ha per mm[rain]
   Yield Productivity                       2.02 kg[grain yield]/m3[rain] =   20.2 kg[yield]/ha per mm[rain]

 Evapotranspiration during growing season  327.2 mm[ET]
   Dry Matter Productivity                  4.31 kg[DM]/m3[ET]            =   43.1 kg[DM]/ha per mm[ET]
   Yield Productivity                       1.89 kg[grain yield]/m3[ET]   =   18.9 kg[yield]/ha per mm[ET]

 Transpiration during growing season       235.2 mm[EP]
   Dry Matter Productivity                  5.99 kg[DM]/m3[EP]            =   59.9 kg[DM]/ha per mm[EP]
   Yield Productivity                       2.63 kg[grain yield]/m3[EP]   =   26.3 kg[yield]/ha per mm[EP]

 N applied during growing season            161. kg[N applied]/ha
   Dry Matter Productivity                  87.5 kg[DM]/kg[N applied]
   Yield Productivity                       38.5 kg[yield]/kg[N applied]

 N uptake during growing season              189 kg[N uptake]/ha
   Dry Matter Productivity                  74.6 kg[DM]/kg[N uptake]
   Yield Productivity                       32.8 kg[yield]/kg[N uptake]

--------------------------------------------------------------------------------------------------------------

                     Maize YIELD :     6195 kg/ha    [Dry weight] 

**************************************************************************************************************

*DSSAT Cropping System Model Ver. 4.6.1.000 -release      OCT 02, 2017; 14:04:36
                                                                                
*RUN   6        : P04/27                    MZCER046 ANBU2009    6              
 MODEL          : MZCER046 - Maize                                              
 EXPERIMENT     : ANBU2009 MZ  Analisis a침os de bajo rendimiento Buga          
 DATA PATH      : C:\DSSAT46\maize\                                             
 TREATMENT  6   : P04/27                    MZCER046                            
                                                                                
                                                                                
 CROP           : Maize            CULTIVAR : FNC3056          ECOTYPE :IB0001  
 STARTING DATE  : MAR 28 2009                                                   
 PLANTING DATE  : APR 27 2009        PLANTS/m2 :  6.2     ROW SPACING :  80.cm  
 WEATHER        : CUNI   2009                                                   
 SOIL           : CCBUGA2017     TEXTURE : CL    -   Suelo Buga MADR Fase I     
 SOIL INITIAL C : DEPTH: 90cm EXTR. H2O: 83.9mm  NO3:151.4kg/ha  NH4: 62.4kg/ha 
 WATER BALANCE  : RAINFED                                                       
 IRRIGATION     : NOT IRRIGATED                                                 
 NITROGEN BAL.  : SOIL-N & N-UPTAKE SIMULATION; NO N-FIXATION                   
 N-FERTILIZER   :      161 kg/ha IN     5 APPLICATIONS                          
 RESIDUE/MANURE : INITIAL :     0 kg/ha ;       0 kg/ha IN     0 APPLICATIONS   
 ENVIRONM. OPT. : DAYL=    0.00  SRAD=    0.00  TMAX=    0.00  TMIN=    0.00    
                  RAIN=    0.00  CO2 =    0.00  DEW =    0.00  WIND=    0.00    
 SIMULATION OPT : WATER   :Y  NITROGEN:Y  N-FIX:N  PHOSPH :N  PESTS  :N         
                  PHOTO   :C  ET      :R  INFIL:S  HYDROL :R  SOM    :G         
                  CO2 387ppm  NSWIT   :1  EVAP :S  SOIL   :2  STEMP  :D         
 MANAGEMENT OPT : PLANTING:R  IRRIG   :N  FERT :D  RESIDUE:R  HARVEST:M         
                  WEATHER :M  TILLAGE :N                                        
                                                                                
*SUMMARY OF SOIL AND GENETIC INPUT PARAMETERS                                   
                                                                                
   SOIL LOWER UPPER   SAT  EXTR  INIT   ROOT   BULK     pH    NO3    NH4    ORG 
  DEPTH LIMIT LIMIT    SW    SW    SW   DIST   DENS                          C  
   cm   cm3/cm3    cm3/cm3    cm3/cm3         g/cm3         ugN/g  ugN/g     %  
------------------------------------------------------------------------------- 
  0-  5 0.215 0.331 0.341 0.116 0.319   1.00   1.68   6.70  11.90   4.21   0.75 
  5- 15 0.215 0.331 0.341 0.116 0.319   1.00   1.68   6.70  11.90   4.21   0.75 
 15- 25 0.215 0.331 0.341 0.116 0.319   1.00   1.68   6.70  11.90   4.21   0.75 
 25- 35 0.181 0.291 0.364 0.110 0.331   0.50   1.61   7.20  12.15   4.32   0.53 
 35- 45 0.181 0.291 0.364 0.110 0.344   0.50   1.61   7.20  12.40   4.44   0.53 
 45- 67 0.096 0.169 0.404 0.073 0.290   0.27   1.51   7.00  10.67   4.47   0.05 
 67- 90 0.096 0.169 0.404 0.073 0.195   0.27   1.51   7.00   7.63   4.53   0.05 
                                                                                
TOT- 90  13.3  21.7  34.0   8.4  25.6  <--cm   -  kg/ha-->  151.4   62.4  51964 
SOIL ALBEDO    : 0.09      EVAPORATION LIMIT : 6.00         MIN. FACTOR  : 1.00 
RUNOFF CURVE # :76.00      DRAINAGE RATE     : 0.60         FERT. FACTOR : 1.00 
                                                                                
 Maize      CULTIVAR :CI0003-FNC3056            ECOTYPE :IB0001                 
 P1     : 233.00  P2     : 0.5000  P5     : 976.00                              
 G2     : 956.00  G3     :  7.500  PHINT  : 45.600                              


*SIMULATED CROP AND SOIL STATUS AT MAIN DEVELOPMENT STAGES

 RUN NO.     6     P04/27                  

        CROP GROWTH     BIOMASS         LEAF   CROP N     STRESS      STRESS                                           
   DATE  AGE STAGE        kg/ha    LAI   NUM  kg/ha  %   H2O  Nitr Phos1 Phos2  RSTG                                   
 ------  --- ----------   -----  -----  ----  ---  ---  ----  ----  ----  ----  ----                                   
 28 MAR    0 Start Sim        0   0.00   0.0    0  0.0  0.00  0.00  0.00  0.00     7
 27 APR    0 Sowing           0   0.00   0.0    0  0.0  0.00  0.00  0.00  0.00     8
 28 APR    1 Germinate        0   0.00   0.0    0  0.0  0.00  0.00  0.00  0.00     9
  3 MAY    6 Emergence       25   0.00   2.0    1  4.4  0.00  0.01  0.00  0.00     1
 16 MAY   19 End Juveni     119   0.25   7.7    4  3.3  0.00  0.00  0.00  0.00     2
 24 MAY   27 Floral Ini     466   0.79  10.9   17  3.6  0.00  0.00  0.00  0.00     3
  2 JUL   66 75% Silkin    7448   4.10  22.5  150  2.0  0.00  0.00  0.00  0.00     4
 13 JUL   77 Beg Gr Fil   10033   3.87  22.5  151  1.5  0.00  0.00  0.00  0.00     5
 25 AUG  120 End Gr Fil   14099   1.05  22.5  161  1.1  0.65  0.00  0.00  0.00     6
 28 AUG  123 Maturity     14099   1.05  22.5  161  1.1  0.42  0.00  0.00  0.00    10
 28 AUG  123 Harvest      14099   1.05  22.5  161  1.1  0.00  0.00  0.00  0.00    10


*MAIN GROWTH AND DEVELOPMENT VARIABLES

@     VARIABLE                                         SIMULATED     MEASURED
      --------                                         ---------     --------
      Anthesis day (dap)                                      66          -99
      Physiological maturity day (dap)                       123          -99
      Yield at harvest maturity (kg [dm]/ha)                5770          -99
      Number at maturity (no/m2)                            3139          -99
      Unit wt at maturity (g [dm]/unit)                   0.1838          -99
      Number at maturity (no/unit)                         506.3          -99
      Tops weight at maturity (kg [dm]/ha)                 14099          -99
      By-product produced (stalk) at maturity (kg[dm]/ha    8398          -99
      Leaf area index, maximum                              4.28          -99
      Harvest index at maturity                            0.409          -99
      Grain N at maturity (kg/ha)                            104          -99
      Tops N at maturity (kg/ha)                             161          -99
      Stem N at maturity (kg/ha)                              57          -99
      Grain N at maturity (%)                                1.8          -99
      Tops weight at anthesis (kg [dm]/ha)                  7184          -99
      Tops N at anthesis (kg/ha)                             147          -99
      Leaf number per stem at maturity                     22.52          -99
      Emergence day (dap)                                      6          -99


*ENVIRONMENTAL AND STRESS FACTORS

 |-----Development Phase------|--------------------------------------Environment--------------------------------------|-----------------Stress-----------------|
                              |---------------Average--------------|-----Cumulative-----|--------Count of days--------|          (0=Min, 1=Max Stress)         |
                         Time  Temp  Temp  Temp Solar Photop                Evapo    Pot TMIN TMIN TMAX TMAX TMAX RAIN|----Water----|---Nitrogen--|-Phosphorus-|
                         Span   Max   Min  Mean   Rad  [day]    CO2   Rain  Trans     ET   <    <    >    >    >    >   Photo         Photo         Photo
                         days    邂    邂    邂 MJ/m2     hr    ppm     mm     mm     mm  0邂  2邂 30邂 32邂 34邂  0mm  synth Growth  synth Growth  synth Growth
----------------------------------------------------------------------------------------------------------------------------------------------------------------
 Emergence-End Juvenile    13  30.9  18.5  24.7  17.5  24.00  386.9   12.6   25.4   63.3    0    0    9    1    0    5  0.000  0.000  0.002  0.005  0.000  0.000
 End Juvenil-Floral Init    8  32.1  18.7  25.4  13.7  24.00  387.1    3.5   12.5   29.5    0    0    7    3    0    2  0.000  0.000  0.000  0.001  0.000  0.000
 Floral Init-End Lf Grow   39  30.1  18.8  24.4  15.8  24.00  387.2  204.6  139.8  148.9    0    0   17    6    1   17  0.000  0.000  0.000  0.000  0.000  0.000
 End Lf Grth-Beg Grn Fil   11  29.7  18.3  24.0  16.0  24.00  387.3    2.5   40.9   41.1    0    0    3    1    0    2  0.000  0.000  0.000  0.000  0.000  0.000
 Grain Filling Phase       43  32.4  18.5  25.5  17.8  24.00  387.5   58.6   88.4  189.8    0    0   38   20    5   10  0.590  0.650  0.000  0.000  0.000  0.000


 Planting to Harvest      123  31.2  18.7  24.9  16.6  24.00  387.3  316.1  333.0  512.4    0    0   80   36    8   41  0.210  0.232  0.000  0.001  0.000  0.000
----------------------------------------------------------------------------------------------------------------------------------------------------------------


*Resource Productivity
 Growing season length: 123 days 

 Precipitation during growing season       316.1 mm[rain]
   Dry Matter Productivity                  4.46 kg[DM]/m3[rain]          =   44.6 kg[DM]/ha per mm[rain]
   Yield Productivity                       1.83 kg[grain yield]/m3[rain] =   18.3 kg[yield]/ha per mm[rain]

 Evapotranspiration during growing season  333.0 mm[ET]
   Dry Matter Productivity                  4.23 kg[DM]/m3[ET]            =   42.3 kg[DM]/ha per mm[ET]
   Yield Productivity                       1.73 kg[grain yield]/m3[ET]   =   17.3 kg[yield]/ha per mm[ET]

 Transpiration during growing season       227.6 mm[EP]
   Dry Matter Productivity                  6.19 kg[DM]/m3[EP]            =   61.9 kg[DM]/ha per mm[EP]
   Yield Productivity                       2.53 kg[grain yield]/m3[EP]   =   25.3 kg[yield]/ha per mm[EP]

 N applied during growing season            161. kg[N applied]/ha
   Dry Matter Productivity                  87.6 kg[DM]/kg[N applied]
   Yield Productivity                       35.8 kg[yield]/kg[N applied]

 N uptake during growing season              180 kg[N uptake]/ha
   Dry Matter Productivity                  78.3 kg[DM]/kg[N uptake]
   Yield Productivity                       32.1 kg[yield]/kg[N uptake]

--------------------------------------------------------------------------------------------------------------

                     Maize YIELD :     5770 kg/ha    [Dry weight] 

**************************************************************************************************************

*DSSAT Cropping System Model Ver. 4.6.1.000 -release      OCT 02, 2017; 14:04:36
                                                                                
*RUN   7        : P05/02                    MZCER046 ANBU2009    7              
 MODEL          : MZCER046 - Maize                                              
 EXPERIMENT     : ANBU2009 MZ  Analisis a침os de bajo rendimiento Buga          
 DATA PATH      : C:\DSSAT46\maize\                                             
 TREATMENT  7   : P05/02                    MZCER046                            
                                                                                
                                                                                
 CROP           : Maize            CULTIVAR : FNC3056          ECOTYPE :IB0001  
 STARTING DATE  : APR  2 2009                                                   
 PLANTING DATE  : MAY  2 2009        PLANTS/m2 :  6.2     ROW SPACING :  80.cm  
 WEATHER        : CUNI   2009                                                   
 SOIL           : CCBUGA2017     TEXTURE : CL    -   Suelo Buga MADR Fase I     
 SOIL INITIAL C : DEPTH: 90cm EXTR. H2O: 83.9mm  NO3:151.4kg/ha  NH4: 62.4kg/ha 
 WATER BALANCE  : RAINFED                                                       
 IRRIGATION     : NOT IRRIGATED                                                 
 NITROGEN BAL.  : SOIL-N & N-UPTAKE SIMULATION; NO N-FIXATION                   
 N-FERTILIZER   :      161 kg/ha IN     5 APPLICATIONS                          
 RESIDUE/MANURE : INITIAL :     0 kg/ha ;       0 kg/ha IN     0 APPLICATIONS   
 ENVIRONM. OPT. : DAYL=    0.00  SRAD=    0.00  TMAX=    0.00  TMIN=    0.00    
                  RAIN=    0.00  CO2 =    0.00  DEW =    0.00  WIND=    0.00    
 SIMULATION OPT : WATER   :Y  NITROGEN:Y  N-FIX:N  PHOSPH :N  PESTS  :N         
                  PHOTO   :C  ET      :R  INFIL:S  HYDROL :R  SOM    :G         
                  CO2 387ppm  NSWIT   :1  EVAP :S  SOIL   :2  STEMP  :D         
 MANAGEMENT OPT : PLANTING:R  IRRIG   :N  FERT :D  RESIDUE:R  HARVEST:M         
                  WEATHER :M  TILLAGE :N                                        
                                                                                
*SUMMARY OF SOIL AND GENETIC INPUT PARAMETERS                                   
                                                                                
   SOIL LOWER UPPER   SAT  EXTR  INIT   ROOT   BULK     pH    NO3    NH4    ORG 
  DEPTH LIMIT LIMIT    SW    SW    SW   DIST   DENS                          C  
   cm   cm3/cm3    cm3/cm3    cm3/cm3         g/cm3         ugN/g  ugN/g     %  
------------------------------------------------------------------------------- 
  0-  5 0.215 0.331 0.341 0.116 0.319   1.00   1.68   6.70  11.90   4.21   0.75 
  5- 15 0.215 0.331 0.341 0.116 0.319   1.00   1.68   6.70  11.90   4.21   0.75 
 15- 25 0.215 0.331 0.341 0.116 0.319   1.00   1.68   6.70  11.90   4.21   0.75 
 25- 35 0.181 0.291 0.364 0.110 0.331   0.50   1.61   7.20  12.15   4.32   0.53 
 35- 45 0.181 0.291 0.364 0.110 0.344   0.50   1.61   7.20  12.40   4.44   0.53 
 45- 67 0.096 0.169 0.404 0.073 0.290   0.27   1.51   7.00  10.67   4.47   0.05 
 67- 90 0.096 0.169 0.404 0.073 0.195   0.27   1.51   7.00   7.63   4.53   0.05 
                                                                                
TOT- 90  13.3  21.7  34.0   8.4  25.6  <--cm   -  kg/ha-->  151.4   62.4  51964 
SOIL ALBEDO    : 0.09      EVAPORATION LIMIT : 6.00         MIN. FACTOR  : 1.00 
RUNOFF CURVE # :76.00      DRAINAGE RATE     : 0.60         FERT. FACTOR : 1.00 
                                                                                
 Maize      CULTIVAR :CI0003-FNC3056            ECOTYPE :IB0001                 
 P1     : 233.00  P2     : 0.5000  P5     : 976.00                              
 G2     : 956.00  G3     :  7.500  PHINT  : 45.600                              


*SIMULATED CROP AND SOIL STATUS AT MAIN DEVELOPMENT STAGES

 RUN NO.     7     P05/02                  

        CROP GROWTH     BIOMASS         LEAF   CROP N     STRESS      STRESS                                           
   DATE  AGE STAGE        kg/ha    LAI   NUM  kg/ha  %   H2O  Nitr Phos1 Phos2  RSTG                                   
 ------  --- ----------   -----  -----  ----  ---  ---  ----  ----  ----  ----  ----                                   
  2 APR    0 Start Sim        0   0.00   0.0    0  0.0  0.00  0.00  0.00  0.00     7
  2 MAY    0 Sowing           0   0.00   0.0    0  0.0  0.00  0.00  0.00  0.00     8
  3 MAY    1 Germinate        0   0.00   0.0    0  0.0  0.00  0.00  0.00  0.00     9
  8 MAY    6 Emergence       25   0.00   2.1    1  4.4  0.00  0.01  0.00  0.00     1
 21 MAY   19 End Juveni     129   0.27   7.8    4  3.3  0.00  0.00  0.00  0.00     2
 29 MAY   27 Floral Ini     515   0.85  10.9   19  3.6  0.00  0.00  0.00  0.00     3
  8 JUL   67 75% Silkin    6898   3.71  22.7  135  2.0  0.00  0.00  0.00  0.00     4
 18 JUL   77 Beg Gr Fil    9437   3.48  22.7  135  1.4  0.12  0.00  0.00  0.00     5
 30 AUG  120 End Gr Fil   12817   0.88  22.7  136  1.1  0.70  0.00  0.00  0.00     6
  2 SEP  123 Maturity     12817   0.88  22.7  136  1.1  0.57  0.00  0.00  0.00    10
  2 SEP  123 Harvest      12817   0.88  22.7  136  1.1  0.00  0.00  0.00  0.00    10


*MAIN GROWTH AND DEVELOPMENT VARIABLES

@     VARIABLE                                         SIMULATED     MEASURED
      --------                                         ---------     --------
      Anthesis day (dap)                                      67          -99
      Physiological maturity day (dap)                       123          -99
      Yield at harvest maturity (kg [dm]/ha)                4736          -99
      Number at maturity (no/m2)                            3257          -99
      Unit wt at maturity (g [dm]/unit)                   0.1454          -99
      Number at maturity (no/unit)                         525.3          -99
      Tops weight at maturity (kg [dm]/ha)                 12817          -99
      By-product produced (stalk) at maturity (kg[dm]/ha    8145          -99
      Leaf area index, maximum                              3.89          -99
      Harvest index at maturity                            0.370          -99
      Grain N at maturity (kg/ha)                             86          -99
      Tops N at maturity (kg/ha)                             136          -99
      Stem N at maturity (kg/ha)                              50          -99
      Grain N at maturity (%)                                1.8          -99
      Tops weight at anthesis (kg [dm]/ha)                  6714          -99
      Tops N at anthesis (kg/ha)                             135          -99
      Leaf number per stem at maturity                     22.73          -99
      Emergence day (dap)                                      6          -99


*ENVIRONMENTAL AND STRESS FACTORS

 |-----Development Phase------|--------------------------------------Environment--------------------------------------|-----------------Stress-----------------|
                              |---------------Average--------------|-----Cumulative-----|--------Count of days--------|          (0=Min, 1=Max Stress)         |
                         Time  Temp  Temp  Temp Solar Photop                Evapo    Pot TMIN TMIN TMAX TMAX TMAX RAIN|----Water----|---Nitrogen--|-Phosphorus-|
                         Span   Max   Min  Mean   Rad  [day]    CO2   Rain  Trans     ET   <    <    >    >    >    >   Photo         Photo         Photo
                         days    邂    邂    邂 MJ/m2     hr    ppm     mm     mm     mm  0邂  2邂 30邂 32邂 34邂  0mm  synth Growth  synth Growth  synth Growth
----------------------------------------------------------------------------------------------------------------------------------------------------------------
 Emergence-End Juvenile    13  31.7  18.4  25.0  16.8  24.00  387.0    5.3   14.3   60.8    0    0   11    2    0    4  0.000  0.000  0.002  0.005  0.000  0.000
 End Juvenil-Floral Init    8  31.8  19.0  25.4  15.2  24.00  387.1   24.4   14.6   32.5    0    0    6    4    0    3  0.000  0.000  0.001  0.002  0.000  0.000
 Floral Init-End Lf Grow   40  29.8  18.7  24.2  15.6  24.00  387.2  185.7  144.2  151.0    0    0   13    4    1   17  0.000  0.000  0.000  0.000  0.000  0.000
 End Lf Grth-Beg Grn Fil   10  31.3  18.0  24.6  17.2  24.00  387.3    0.0   40.3   40.9    0    0    8    3    0    0  0.010  0.055  0.000  0.000  0.000  0.000
 Grain Filling Phase       43  32.5  18.7  25.6  17.8  23.98  387.5   61.6   77.4  192.7    0    0   38   22    6   11  0.637  0.696  0.000  0.000  0.000  0.000


 Planting to Harvest      123  31.3  18.6  25.0  16.7  23.92  387.3  296.3  316.4  520.9    0    0   83   37    8   40  0.236  0.262  0.000  0.001  0.000  0.000
----------------------------------------------------------------------------------------------------------------------------------------------------------------


*Resource Productivity
 Growing season length: 123 days 

 Precipitation during growing season       296.3 mm[rain]
   Dry Matter Productivity                  4.33 kg[DM]/m3[rain]          =   43.3 kg[DM]/ha per mm[rain]
   Yield Productivity                       1.60 kg[grain yield]/m3[rain] =   16.0 kg[yield]/ha per mm[rain]

 Evapotranspiration during growing season  316.4 mm[ET]
   Dry Matter Productivity                  4.05 kg[DM]/m3[ET]            =   40.5 kg[DM]/ha per mm[ET]
   Yield Productivity                       1.50 kg[grain yield]/m3[ET]   =   15.0 kg[yield]/ha per mm[ET]

 Transpiration during growing season       207.1 mm[EP]
   Dry Matter Productivity                  6.19 kg[DM]/m3[EP]            =   61.9 kg[DM]/ha per mm[EP]
   Yield Productivity                       2.29 kg[grain yield]/m3[EP]   =   22.9 kg[yield]/ha per mm[EP]

 N applied during growing season            161. kg[N applied]/ha
   Dry Matter Productivity                  79.6 kg[DM]/kg[N applied]
   Yield Productivity                       29.4 kg[yield]/kg[N applied]

 N uptake during growing season              155 kg[N uptake]/ha
   Dry Matter Productivity                  82.7 kg[DM]/kg[N uptake]
   Yield Productivity                       30.6 kg[yield]/kg[N uptake]

--------------------------------------------------------------------------------------------------------------

                     Maize YIELD :     4736 kg/ha    [Dry weight] 

**************************************************************************************************************

*DSSAT Cropping System Model Ver. 4.6.1.000 -release      OCT 02, 2017; 14:04:36
                                                                                
*RUN   8        : P05/07                    MZCER046 ANBU2009    8              
 MODEL          : MZCER046 - Maize                                              
 EXPERIMENT     : ANBU2009 MZ  Analisis a침os de bajo rendimiento Buga          
 DATA PATH      : C:\DSSAT46\maize\                                             
 TREATMENT  8   : P05/07                    MZCER046                            
                                                                                
                                                                                
 CROP           : Maize            CULTIVAR : FNC3056          ECOTYPE :IB0001  
 STARTING DATE  : APR  7 2009                                                   
 PLANTING DATE  : MAY  7 2009        PLANTS/m2 :  6.2     ROW SPACING :  80.cm  
 WEATHER        : CUNI   2009                                                   
 SOIL           : CCBUGA2017     TEXTURE : CL    -   Suelo Buga MADR Fase I     
 SOIL INITIAL C : DEPTH: 90cm EXTR. H2O: 83.9mm  NO3:151.4kg/ha  NH4: 62.4kg/ha 
 WATER BALANCE  : RAINFED                                                       
 IRRIGATION     : NOT IRRIGATED                                                 
 NITROGEN BAL.  : SOIL-N & N-UPTAKE SIMULATION; NO N-FIXATION                   
 N-FERTILIZER   :      161 kg/ha IN     5 APPLICATIONS                          
 RESIDUE/MANURE : INITIAL :     0 kg/ha ;       0 kg/ha IN     0 APPLICATIONS   
 ENVIRONM. OPT. : DAYL=    0.00  SRAD=    0.00  TMAX=    0.00  TMIN=    0.00    
                  RAIN=    0.00  CO2 =    0.00  DEW =    0.00  WIND=    0.00    
 SIMULATION OPT : WATER   :Y  NITROGEN:Y  N-FIX:N  PHOSPH :N  PESTS  :N         
                  PHOTO   :C  ET      :R  INFIL:S  HYDROL :R  SOM    :G         
                  CO2 387ppm  NSWIT   :1  EVAP :S  SOIL   :2  STEMP  :D         
 MANAGEMENT OPT : PLANTING:R  IRRIG   :N  FERT :D  RESIDUE:R  HARVEST:M         
                  WEATHER :M  TILLAGE :N                                        
                                                                                
*SUMMARY OF SOIL AND GENETIC INPUT PARAMETERS                                   
                                                                                
   SOIL LOWER UPPER   SAT  EXTR  INIT   ROOT   BULK     pH    NO3    NH4    ORG 
  DEPTH LIMIT LIMIT    SW    SW    SW   DIST   DENS                          C  
   cm   cm3/cm3    cm3/cm3    cm3/cm3         g/cm3         ugN/g  ugN/g     %  
------------------------------------------------------------------------------- 
  0-  5 0.215 0.331 0.341 0.116 0.319   1.00   1.68   6.70  11.90   4.21   0.75 
  5- 15 0.215 0.331 0.341 0.116 0.319   1.00   1.68   6.70  11.90   4.21   0.75 
 15- 25 0.215 0.331 0.341 0.116 0.319   1.00   1.68   6.70  11.90   4.21   0.75 
 25- 35 0.181 0.291 0.364 0.110 0.331   0.50   1.61   7.20  12.15   4.32   0.53 
 35- 45 0.181 0.291 0.364 0.110 0.344   0.50   1.61   7.20  12.40   4.44   0.53 
 45- 67 0.096 0.169 0.404 0.073 0.290   0.27   1.51   7.00  10.67   4.47   0.05 
 67- 90 0.096 0.169 0.404 0.073 0.195   0.27   1.51   7.00   7.63   4.53   0.05 
                                                                                
TOT- 90  13.3  21.7  34.0   8.4  25.6  <--cm   -  kg/ha-->  151.4   62.4  51964 
SOIL ALBEDO    : 0.09      EVAPORATION LIMIT : 6.00         MIN. FACTOR  : 1.00 
RUNOFF CURVE # :76.00      DRAINAGE RATE     : 0.60         FERT. FACTOR : 1.00 
                                                                                
 Maize      CULTIVAR :CI0003-FNC3056            ECOTYPE :IB0001                 
 P1     : 233.00  P2     : 0.5000  P5     : 976.00                              
 G2     : 956.00  G3     :  7.500  PHINT  : 45.600                              


*SIMULATED CROP AND SOIL STATUS AT MAIN DEVELOPMENT STAGES

 RUN NO.     8     P05/07                  

        CROP GROWTH     BIOMASS         LEAF   CROP N     STRESS      STRESS                                           
   DATE  AGE STAGE        kg/ha    LAI   NUM  kg/ha  %   H2O  Nitr Phos1 Phos2  RSTG                                   
 ------  --- ----------   -----  -----  ----  ---  ---  ----  ----  ----  ----  ----                                   
  7 APR    0 Start Sim        0   0.00   0.0    0  0.0  0.00  0.00  0.00  0.00     7
  7 MAY    0 Sowing           0   0.00   0.0    0  0.0  0.00  0.00  0.00  0.00     8
  8 MAY    1 Germinate        0   0.00   0.0    0  0.0  0.00  0.00  0.00  0.00     9
 13 MAY    6 Emergence       25   0.00   2.1    1  4.4  0.00  0.01  0.00  0.00     1
 26 MAY   19 End Juveni     140   0.29   7.8    5  3.3  0.01  0.00  0.00  0.00     2
  3 JUN   27 Floral Ini     442   0.75  11.0   16  3.6  0.00  0.00  0.00  0.00     3
 14 JUL   68 75% Silkin    7547   3.85  23.0  147  1.9  0.00  0.00  0.00  0.00     4
 23 JUL   77 Beg Gr Fil    8981   3.26  23.0  147  1.6  0.50  0.00  0.00  0.00     5
  4 SEP  120 End Gr Fil   11797   0.77  23.0  147  1.2  0.72  0.00  0.00  0.00     6
  7 SEP  123 Maturity     11797   0.77  23.0  147  1.2  0.98  0.00  0.00  0.00    10
[...]
 NITROGEN BAL.  : SOIL-N & N-UPTAKE SIMULATION; NO N-FIXATION                   
 N-FERTILIZER   :      161 kg/ha IN     5 APPLICATIONS                          
 RESIDUE/MANURE : INITIAL :     0 kg/ha ;       0 kg/ha IN     0 APPLICATIONS   
 ENVIRONM. OPT. : DAYL=    0.00  SRAD=    0.00  TMAX=    0.00  TMIN=    0.00    
                  RAIN=    0.00  CO2 =    0.00  DEW =    0.00  WIND=    0.00    
 SIMULATION OPT : WATER   :Y  NITROGEN:Y  N-FIX:N  PHOSPH :N  PESTS  :N         
                  PHOTO   :C  ET      :R  INFIL:S  HYDROL :R  SOM    :G         
                  CO2 388ppm  NSWIT   :1  EVAP :S  SOIL   :2  STEMP  :D         
 MANAGEMENT OPT : PLANTING:R  IRRIG   :N  FERT :D  RESIDUE:R  HARVEST:M         
                  WEATHER :M  TILLAGE :N                                        
                                                                                
*SUMMARY OF SOIL AND GENETIC INPUT PARAMETERS                                   
                                                                                
   SOIL LOWER UPPER   SAT  EXTR  INIT   ROOT   BULK     pH    NO3    NH4    ORG 
  DEPTH LIMIT LIMIT    SW    SW    SW   DIST   DENS                          C  
   cm   cm3/cm3    cm3/cm3    cm3/cm3         g/cm3         ugN/g  ugN/g     %  
------------------------------------------------------------------------------- 
  0-  5 0.215 0.331 0.341 0.116 0.319   1.00   1.68   6.70  11.90   4.21   0.75 
  5- 15 0.215 0.331 0.341 0.116 0.319   1.00   1.68   6.70  11.90   4.21   0.75 
 15- 25 0.215 0.331 0.341 0.116 0.319   1.00   1.68   6.70  11.90   4.21   0.75 
 25- 35 0.181 0.291 0.364 0.110 0.331   0.50   1.61   7.20  12.15   4.32   0.53 
 35- 45 0.181 0.291 0.364 0.110 0.344   0.50   1.61   7.20  12.40   4.44   0.53 
 45- 67 0.096 0.169 0.404 0.073 0.290   0.27   1.51   7.00  10.67   4.47   0.05 
 67- 90 0.096 0.169 0.404 0.073 0.195   0.27   1.51   7.00   7.63   4.53   0.05 
                                                                                
TOT- 90  13.3  21.7  34.0   8.4  25.6  <--cm   -  kg/ha-->  151.4   62.4  51964 
SOIL ALBEDO    : 0.09      EVAPORATION LIMIT : 6.00         MIN. FACTOR  : 1.00 
RUNOFF CURVE # :76.00      DRAINAGE RATE     : 0.60         FERT. FACTOR : 1.00 
                                                                                
 Maize      CULTIVAR :CI0003-FNC3056            ECOTYPE :IB0001                 
 P1     : 233.00  P2     : 0.5000  P5     : 976.00                              
 G2     : 956.00  G3     :  7.500  PHINT  : 45.600                              


*SIMULATED CROP AND SOIL STATUS AT MAIN DEVELOPMENT STAGES

 RUN NO.    35     P12/14                  

        CROP GROWTH     BIOMASS         LEAF   CROP N     STRESS      STRESS                                           
   DATE  AGE STAGE        kg/ha    LAI   NUM  kg/ha  %   H2O  Nitr Phos1 Phos2  RSTG                                   
 ------  --- ----------   -----  -----  ----  ---  ---  ----  ----  ----  ----  ----                                   
 14 NOV    0 Start Sim        0   0.00   0.0    0  0.0  0.00  0.00  0.00  0.00     7
 14 DEC    0 Sowing           0   0.00   0.0    0  0.0  0.00  0.00  0.00  0.00     8
 15 DEC    1 Germinate        0   0.00   0.0    0  0.0  0.00  0.00  0.00  0.00     9
 20 DEC    6 Emergence       25   0.00   2.1    1  4.4  0.00  0.01  0.00  0.00     1
  2 JAN   19 End Juveni      94   0.20   7.7    3  3.4  0.00  0.00  0.00  0.00     2
  6 JAN   23 Floral Ini     227   0.43   9.3    8  3.7  0.00  0.00  0.00  0.00     3
  6 FEB   54 75% Silkin    2859   1.43  19.2   69  2.4  0.47  0.00  0.00  0.00     4
 16 FEB   64 Beg Gr Fil    2885   0.93  19.2   69  2.4  0.89  0.00  0.00  0.00     5
 28 MAR  104 End Gr Fil    3721   0.25  19.2   69  1.8  0.72  0.00  0.00  0.00     6
 30 MAR  106 Maturity      3721   0.25  19.2   69  1.8  0.00  0.00  0.00  0.00    10
 30 MAR  106 Harvest       3721   0.25  19.2   69  1.8  0.00  0.00  0.00  0.00    10


*MAIN GROWTH AND DEVELOPMENT VARIABLES

@     VARIABLE                                         SIMULATED     MEASURED
      --------                                         ---------     --------
      Anthesis day (dap)                                      54          -99
      Physiological maturity day (dap)                       106          -99
      Yield at harvest maturity (kg [dm]/ha)                 999          -99
      Number at maturity (no/m2)                             557          -99
      Unit wt at maturity (g [dm]/unit)                   0.1794          -99
      Number at maturity (no/unit)                         100.9          -99
      Tops weight at maturity (kg [dm]/ha)                  3721          -99
      By-product produced (stalk) at maturity (kg[dm]/ha    2761          -99
      Leaf area index, maximum                              2.10          -99
      Harvest index at maturity                            0.269          -99
      Grain N at maturity (kg/ha)                             18          -99
      Tops N at maturity (kg/ha)                              69          -99
      Stem N at maturity (kg/ha)                              48          -99
      Grain N at maturity (%)                                1.8          -99
      Tops weight at anthesis (kg [dm]/ha)                  2843          -99
      Tops N at anthesis (kg/ha)                              69          -99
      Leaf number per stem at maturity                     19.23          -99
      Emergence day (dap)                                      6          -99


*ENVIRONMENTAL AND STRESS FACTORS

 |-----Development Phase------|--------------------------------------Environment--------------------------------------|-----------------Stress-----------------|
                              |---------------Average--------------|-----Cumulative-----|--------Count of days--------|          (0=Min, 1=Max Stress)         |
                         Time  Temp  Temp  Temp Solar Photop                Evapo    Pot TMIN TMIN TMAX TMAX TMAX RAIN|----Water----|---Nitrogen--|-Phosphorus-|
                         Span   Max   Min  Mean   Rad  [day]    CO2   Rain  Trans     ET   <    <    >    >    >    >   Photo         Photo         Photo
                         days    邂    邂    邂 MJ/m2     hr    ppm     mm     mm     mm  0邂  2邂 30邂 32邂 34邂  0mm  synth Growth  synth Growth  synth Growth
----------------------------------------------------------------------------------------------------------------------------------------------------------------
 Emergence-End Juvenile    13  30.8  19.0  24.9  16.2   0.00  388.5   30.6   36.6   58.8    0    0    7    3    0    4  0.000  0.000  0.002  0.005  0.000  0.000
 End Juvenil-Floral Init    4  31.8  18.0  24.9  18.1   0.00  388.5    0.0    6.3   19.7    0    0    3    2    0    0  0.000  0.000  0.001  0.002  0.000  0.000
 Floral Init-End Lf Grow   31  33.5  18.8  26.2  18.4   0.00  388.7    2.8   63.6  148.1    0    0   29   21   12    4  0.348  0.444  0.000  0.000  0.000  0.000
 End Lf Grth-Beg Grn Fil   10  32.4  19.9  26.2  17.7   0.00  388.8   13.2   12.4   45.9    0    0    8    7    2    2  0.809  0.873  0.000  0.000  0.000  0.000
 Grain Filling Phase       40  33.6  20.3  27.0  16.6   6.04  389.1   64.9   54.3  185.0    0    0   38   33   15   13  0.676  0.746  0.000  0.000  0.000  0.000


 Planting to Harvest      106  32.9  19.6  26.2  17.0   2.54  388.8  130.3  183.0  489.6    0    0   90   71   29   26  0.433  0.494  0.000  0.001  0.000  0.000
----------------------------------------------------------------------------------------------------------------------------------------------------------------


*Resource Productivity
 Growing season length: 106 days 

 Precipitation during growing season       130.3 mm[rain]
   Dry Matter Productivity                  2.86 kg[DM]/m3[rain]          =   28.6 kg[DM]/ha per mm[rain]
   Yield Productivity                       0.77 kg[grain yield]/m3[rain] =    7.7 kg[yield]/ha per mm[rain]

 Evapotranspiration during growing season  183.0 mm[ET]
   Dry Matter Productivity                  2.03 kg[DM]/m3[ET]            =   20.3 kg[DM]/ha per mm[ET]
   Yield Productivity                       0.55 kg[grain yield]/m3[ET]   =    5.5 kg[yield]/ha per mm[ET]

 Transpiration during growing season        76.3 mm[EP]
   Dry Matter Productivity                  4.88 kg[DM]/m3[EP]            =   48.8 kg[DM]/ha per mm[EP]
   Yield Productivity                       1.31 kg[grain yield]/m3[EP]   =   13.1 kg[yield]/ha per mm[EP]

 N applied during growing season            161. kg[N applied]/ha
   Dry Matter Productivity                  23.1 kg[DM]/kg[N applied]
   Yield Productivity                        6.2 kg[yield]/kg[N applied]

 N uptake during growing season               77 kg[N uptake]/ha
   Dry Matter Productivity                  48.3 kg[DM]/kg[N uptake]
   Yield Productivity                       13.0 kg[yield]/kg[N uptake]

--------------------------------------------------------------------------------------------------------------

                     Maize YIELD :      999 kg/ha    [Dry weight] 

**************************************************************************************************************

*DSSAT Cropping System Model Ver. 4.6.1.000 -release      OCT 02, 2017; 14:04:41
                                                                                
*RUN  36        : P12/19                    MZCER046 ANBU2009   36              
 MODEL          : MZCER046 - Maize                                              
 EXPERIMENT     : ANBU2009 MZ  Analisis a침os de bajo rendimiento Buga          
 DATA PATH      : C:\DSSAT46\maize\                                             
 TREATMENT 36   : P12/19                    MZCER046                            
                                                                                
                                                                                
 CROP           : Maize            CULTIVAR : FNC3056          ECOTYPE :IB0001  
 STARTING DATE  : NOV 19 2009                                                   
 PLANTING DATE  : DEC 19 2009        PLANTS/m2 :  6.2     ROW SPACING :  80.cm  
 WEATHER        : CUNI   2009                                                   
 SOIL           : CCBUGA2017     TEXTURE : CL    -   Suelo Buga MADR Fase I     
 SOIL INITIAL C : DEPTH: 90cm EXTR. H2O: 83.9mm  NO3:151.4kg/ha  NH4: 62.4kg/ha 
 WATER BALANCE  : RAINFED                                                       
 IRRIGATION     : NOT IRRIGATED                                                 
 NITROGEN BAL.  : SOIL-N & N-UPTAKE SIMULATION; NO N-FIXATION                   
 N-FERTILIZER   :      161 kg/ha IN     5 APPLICATIONS                          
 RESIDUE/MANURE : INITIAL :     0 kg/ha ;       0 kg/ha IN     0 APPLICATIONS   
 ENVIRONM. OPT. : DAYL=    0.00  SRAD=    0.00  TMAX=    0.00  TMIN=    0.00    
                  RAIN=    0.00  CO2 =    0.00  DEW =    0.00  WIND=    0.00    
 SIMULATION OPT : WATER   :Y  NITROGEN:Y  N-FIX:N  PHOSPH :N  PESTS  :N         
                  PHOTO   :C  ET      :R  INFIL:S  HYDROL :R  SOM    :G         
                  CO2 388ppm  NSWIT   :1  EVAP :S  SOIL   :2  STEMP  :D         
 MANAGEMENT OPT : PLANTING:R  IRRIG   :N  FERT :D  RESIDUE:R  HARVEST:M         
                  WEATHER :M  TILLAGE :N                                        
                                                                                
*SUMMARY OF SOIL AND GENETIC INPUT PARAMETERS                                   
                                                                                
   SOIL LOWER UPPER   SAT  EXTR  INIT   ROOT   BULK     pH    NO3    NH4    ORG 
  DEPTH LIMIT LIMIT    SW    SW    SW   DIST   DENS                          C  
   cm   cm3/cm3    cm3/cm3    cm3/cm3         g/cm3         ugN/g  ugN/g     %  
------------------------------------------------------------------------------- 
  0-  5 0.215 0.331 0.341 0.116 0.319   1.00   1.68   6.70  11.90   4.21   0.75 
  5- 15 0.215 0.331 0.341 0.116 0.319   1.00   1.68   6.70  11.90   4.21   0.75 
 15- 25 0.215 0.331 0.341 0.116 0.319   1.00   1.68   6.70  11.90   4.21   0.75 
 25- 35 0.181 0.291 0.364 0.110 0.331   0.50   1.61   7.20  12.15   4.32   0.53 
 35- 45 0.181 0.291 0.364 0.110 0.344   0.50   1.61   7.20  12.40   4.44   0.53 
 45- 67 0.096 0.169 0.404 0.073 0.290   0.27   1.51   7.00  10.67   4.47   0.05 
 67- 90 0.096 0.169 0.404 0.073 0.195   0.27   1.51   7.00   7.63   4.53   0.05 
                                                                                
TOT- 90  13.3  21.7  34.0   8.4  25.6  <--cm   -  kg/ha-->  151.4   62.4  51964 
SOIL ALBEDO    : 0.09      EVAPORATION LIMIT : 6.00         MIN. FACTOR  : 1.00 
RUNOFF CURVE # :76.00      DRAINAGE RATE     : 0.60         FERT. FACTOR : 1.00 
                                                                                
 Maize      CULTIVAR :CI0003-FNC3056            ECOTYPE :IB0001                 
 P1     : 233.00  P2     : 0.5000  P5     : 976.00                              
 G2     : 956.00  G3     :  7.500  PHINT  : 45.600                              


*SIMULATED CROP AND SOIL STATUS AT MAIN DEVELOPMENT STAGES

 RUN NO.    36     P12/19                  

        CROP GROWTH     BIOMASS         LEAF   CROP N     STRESS      STRESS                                           
   DATE  AGE STAGE        kg/ha    LAI   NUM  kg/ha  %   H2O  Nitr Phos1 Phos2  RSTG                                   
 ------  --- ----------   -----  -----  ----  ---  ---  ----  ----  ----  ----  ----                                   
 19 NOV    0 Start Sim        0   0.00   0.0    0  0.0  0.00  0.00  0.00  0.00     7
 19 DEC    0 Sowing           0   0.00   0.0    0  0.0  0.00  0.00  0.00  0.00     8
 20 DEC    1 Germinate        0   0.00   0.0    0  0.0  0.00  0.00  0.00  0.00     9
 25 DEC    6 Emergence       25   0.00   2.1    1  4.4  0.00  0.01  0.00  0.00     1
  7 JAN   19 End Juveni     112   0.24   7.8    4  3.2  0.00  0.00  0.00  0.00     2
 11 JAN   23 Floral Ini     265   0.50   9.4   10  3.7  0.00  0.00  0.00  0.00     3
 12 FEB   55 75% Silkin    2890   1.37  19.9   68  2.3  0.50  0.00  0.00  0.00     4
 21 FEB   64 Beg Gr Fil    2830   0.93  19.9   68  2.4  0.91  0.00  0.00  0.00     5
  2 APR  104 End Gr Fil    3873   0.30  19.9   68  1.7  0.61  0.00  0.00  0.00     6
  5 APR  107 Maturity      3873   0.30  19.9   68  1.7  0.00  0.00  0.00  0.00    10
  5 APR  107 Harvest       3873   0.30  19.9   68  1.7  0.00  0.00  0.00  0.00    10


*MAIN GROWTH AND DEVELOPMENT VARIABLES

@     VARIABLE                                         SIMULATED     MEASURED
      --------                                         ---------     --------
      Anthesis day (dap)                                      55          -99
      Physiological maturity day (dap)                       107          -99
      Yield at harvest maturity (kg [dm]/ha)                 897          -99
      Number at maturity (no/m2)                             458          -99
      Unit wt at maturity (g [dm]/unit)                   0.1958          -99
      Number at maturity (no/unit)                          87.1          -99
      Tops weight at maturity (kg [dm]/ha)                  3873          -99
      By-product produced (stalk) at maturity (kg[dm]/ha    3016          -99
      Leaf area index, maximum                              2.08          -99
      Harvest index at maturity                            0.232          -99
      Grain N at maturity (kg/ha)                             16          -99
      Tops N at maturity (kg/ha)                              68          -99
      Stem N at maturity (kg/ha)                              48          -99
      Grain N at maturity (%)                                1.8          -99
      Tops weight at anthesis (kg [dm]/ha)                  2876          -99
      Tops N at anthesis (kg/ha)                              68          -99
      Leaf number per stem at maturity                     19.88          -99
      Emergence day (dap)                                      6          -99


*ENVIRONMENTAL AND STRESS FACTORS

 |-----Development Phase------|--------------------------------------Environment--------------------------------------|-----------------Stress-----------------|
                              |---------------Average--------------|-----Cumulative-----|--------Count of days--------|          (0=Min, 1=Max Stress)         |
                         Time  Temp  Temp  Temp Solar Photop                Evapo    Pot TMIN TMIN TMAX TMAX TMAX RAIN|----Water----|---Nitrogen--|-Phosphorus-|
                         Span   Max   Min  Mean   Rad  [day]    CO2   Rain  Trans     ET   <    <    >    >    >    >   Photo         Photo         Photo
                         days    邂    邂    邂 MJ/m2     hr    ppm     mm     mm     mm  0邂  2邂 30邂 32邂 34邂  0mm  synth Growth  synth Growth  synth Growth
----------------------------------------------------------------------------------------------------------------------------------------------------------------
 Emergence-End Juvenile    13  31.3  18.7  25.0  17.1   0.00  388.5   21.6   26.8   62.1    0    0    9    4    0    3  0.000  0.000  0.002  0.004  0.000  0.000
 End Juvenil-Floral Init    4  32.6  19.1  25.9  18.0   0.00  388.5    1.4    5.7   19.7    0    0    4    2    0    2  0.000  0.000  0.001  0.003  0.000  0.000
 Floral Init-End Lf Grow   32  33.3  19.0  26.1  18.2   0.00  388.7   14.6   65.8  150.6    0    0   28   22   13    4  0.361  0.469  0.000  0.000  0.000  0.000
 End Lf Grth-Beg Grn Fil    9  33.9  20.1  27.0  16.5   0.00  388.9    4.2   11.4   39.4    0    0    9    9    2    1  0.854  0.903  0.000  0.000  0.000  0.000
 Grain Filling Phase       40  33.6  20.3  26.9  16.7   7.87  389.1   82.2   59.8  185.3    0    0   38   33   14   13  0.577  0.635  0.000  0.000  0.000  0.000


 Planting to Harvest      107  33.0  19.6  26.3  17.1   3.40  388.9  143.0  195.9  496.5    0    0   93   72   29   25  0.395  0.453  0.000  0.001  0.000  0.000
----------------------------------------------------------------------------------------------------------------------------------------------------------------


*Resource Productivity
 Growing season length: 107 days 

 Precipitation during growing season       143.0 mm[rain]
   Dry Matter Productivity                  2.71 kg[DM]/m3[rain]          =   27.1 kg[DM]/ha per mm[rain]
   Yield Productivity                       0.63 kg[grain yield]/m3[rain] =    6.3 kg[yield]/ha per mm[rain]

 Evapotranspiration during growing season  195.9 mm[ET]
   Dry Matter Productivity                  1.98 kg[DM]/m3[ET]            =   19.8 kg[DM]/ha per mm[ET]
   Yield Productivity                       0.46 kg[grain yield]/m3[ET]   =    4.6 kg[yield]/ha per mm[ET]

 Transpiration during growing season        83.0 mm[EP]
   Dry Matter Productivity                  4.66 kg[DM]/m3[EP]            =   46.6 kg[DM]/ha per mm[EP]
   Yield Productivity                       1.08 kg[grain yield]/m3[EP]   =   10.8 kg[yield]/ha per mm[EP]

 N applied during growing season            161. kg[N applied]/ha
   Dry Matter Productivity                  24.1 kg[DM]/kg[N applied]
   Yield Productivity                        5.6 kg[yield]/kg[N applied]

 N uptake during growing season               76 kg[N uptake]/ha
   Dry Matter Productivity                  51.0 kg[DM]/kg[N uptake]
   Yield Productivity                       11.8 kg[yield]/kg[N uptake]

--------------------------------------------------------------------------------------------------------------

                     Maize YIELD :      897 kg/ha    [Dry weight] 

**************************************************************************************************************
