*SIMULATION OVERVIEW FILE

*DSSAT Cropping System Model Ver. 4.6.1.000 -release      OCT 02, 2017; 12:58:55
                                                                                
*RUN   1        : P07/14                    MZCER046 ANES1986    1              
 MODEL          : MZCER046 - Maize                                              
 EXPERIMENT     : ANES1986 MZ  Analisis a침os de bajo rendimiento Espinal       
 DATA PATH      : C:\DSSAT46\maize\                                             
 TREATMENT  1   : P07/14                    MZCER046                            
                                                                                
                                                                                
 CROP           : Maize            CULTIVAR : DK234            ECOTYPE :IB0001  
 STARTING DATE  : JUN 14 1986                                                   
 PLANTING DATE  : JUL 14 1986        PLANTS/m2 :  6.2     ROW SPACING :  80.cm  
 WEATHER        : CNAT   1986                                                   
 SOIL           : CCESPI2017     TEXTURE : SL    -   Suelo Espinal Calibraci    
 SOIL INITIAL C : DEPTH:100cm EXTR. H2O: 83.6mm  NO3:100.0kg/ha  NH4: 72.3kg/ha 
 WATER BALANCE  : RAINFED                                                       
 IRRIGATION     : NOT IRRIGATED                                                 
 NITROGEN BAL.  : SOIL-N & N-UPTAKE SIMULATION; NO N-FIXATION                   
 N-FERTILIZER   :      162 kg/ha IN     6 APPLICATIONS                          
 RESIDUE/MANURE : INITIAL :     0 kg/ha ;       0 kg/ha IN     0 APPLICATIONS   
 ENVIRONM. OPT. : DAYL=    0.00  SRAD=    0.00  TMAX=    0.00  TMIN=    0.00    
                  RAIN=    0.00  CO2 =    0.00  DEW =    0.00  WIND=    0.00    
 SIMULATION OPT : WATER   :Y  NITROGEN:Y  N-FIX:N  PHOSPH :N  PESTS  :N         
                  PHOTO   :C  ET      :R  INFIL:S  HYDROL :R  SOM    :G         
                  CO2 347ppm  NSWIT   :1  EVAP :S  SOIL   :2  STEMP  :D         
 MANAGEMENT OPT : PLANTING:R  IRRIG   :N  FERT :D  RESIDUE:R  HARVEST:M         
                  WEATHER :M  TILLAGE :N                                        
                                                                                
*SUMMARY OF SOIL AND GENETIC INPUT PARAMETERS                                   
                                                                                
   SOIL LOWER UPPER   SAT  EXTR  INIT   ROOT   BULK     pH    NO3    NH4    ORG 
  DEPTH LIMIT LIMIT    SW    SW    SW   DIST   DENS                          C  
   cm   cm3/cm3    cm3/cm3    cm3/cm3         g/cm3         ugN/g  ugN/g     %  
------------------------------------------------------------------------------- 
  0-  5 0.160 0.252 0.376 0.092 0.252   1.00   1.69   6.60   8.90   4.51   0.45 
  5- 15 0.160 0.252 0.376 0.092 0.252   1.00   1.69   6.60   8.90   4.51   0.45 
 15- 30 0.160 0.252 0.376 0.092 0.252   1.00   1.69   6.60   8.90   4.51   0.45 
 30- 53 0.120 0.200 0.440 0.080 0.200   0.27   1.40   7.10   5.60   5.04   0.17 
 53- 77 0.120 0.200 0.440 0.080 0.200   0.27   1.40   7.10   5.60   5.04   0.17 
 77-100 0.120 0.200 0.440 0.080 0.200   0.27   1.40   7.10   5.60   5.04   0.17 
                                                                                
TOT-100  13.2  21.6  42.1   8.4  21.6  <--cm   -  kg/ha-->  100.0   72.3  39475 
SOIL ALBEDO    : 0.09      EVAPORATION LIMIT : 6.00         MIN. FACTOR  : 1.00 
RUNOFF CURVE # :76.00      DRAINAGE RATE     : 0.60         FERT. FACTOR : 1.00 
                                                                                
 Maize      CULTIVAR :CI0002-DK234              ECOTYPE :IB0001                 
 P1     : 300.00  P2     : 0.4000  P5     :1075.00                              
 G2     : 890.00  G3     :  7.750  PHINT  : 40.000                              


*SIMULATED CROP AND SOIL STATUS AT MAIN DEVELOPMENT STAGES

 RUN NO.     1     P07/14                  

        CROP GROWTH     BIOMASS         LEAF   CROP N     STRESS      STRESS                                           
   DATE  AGE STAGE        kg/ha    LAI   NUM  kg/ha  %   H2O  Nitr Phos1 Phos2  RSTG                                   
 ------  --- ----------   -----  -----  ----  ---  ---  ----  ----  ----  ----  ----                                   
 14 JUN    0 Start Sim        0   0.00   0.0    0  0.0  0.00  0.00  0.00  0.00     7
 14 JUL    0 Sowing           0   0.00   0.0    0  0.0  0.00  0.00  0.00  0.00     8
 15 JUL    1 Germinate        0   0.00   0.0    0  0.0  0.00  0.00  0.00  0.00     9
 19 JUL    5 Emergence       25   0.00   2.3    1  4.4  0.00  0.01  0.00  0.00     1
  3 AUG   20 End Juveni     306   0.56  10.6   11  3.6  0.19  0.00  0.00  0.00     2
 11 AUG   28 Floral Ini     737   1.03  14.8   28  3.8  0.57  0.00  0.00  0.00     3
 15 SEP   63 75% Silkin    4245   1.45  30.0  109  2.6  0.62  0.00  0.00  0.00     4
 23 SEP   71 Beg Gr Fil    4114   1.05  30.0  109  2.7  0.83  0.00  0.00  0.00     5
 10 NOV  119 End Gr Fil    5805   1.05  30.0  109  1.9  0.00  0.00  0.00  0.00     6
 12 NOV  121 Maturity      5805   1.05  30.0  109  1.9  0.00  0.00  0.00  0.00    10
 12 NOV  121 Harvest       5805   1.05  30.0  109  1.9  0.00  0.00  0.00  0.00    10


*MAIN GROWTH AND DEVELOPMENT VARIABLES

@     VARIABLE                                         SIMULATED     MEASURED
      --------                                         ---------     --------
      Anthesis day (dap)                                      63          -99
      Physiological maturity day (dap)                       121          -99
      Yield at harvest maturity (kg [dm]/ha)                1436          -99
      Number at maturity (no/m2)                             394          -99
      Unit wt at maturity (g [dm]/unit)                   0.3645          -99
      Number at maturity (no/unit)                          76.4          -99
      Tops weight at maturity (kg [dm]/ha)                  5805          -99
      By-product produced (stalk) at maturity (kg[dm]/ha    4428          -99
      Leaf area index, maximum                              2.36          -99
      Harvest index at maturity                            0.247          -99
      Grain N at maturity (kg/ha)                             25          -99
      Tops N at maturity (kg/ha)                             109          -99
      Stem N at maturity (kg/ha)                              79          -99
      Grain N at maturity (%)                                1.7          -99
      Tops weight at anthesis (kg [dm]/ha)                  4254          -99
      Tops N at anthesis (kg/ha)                             109          -99
      Leaf number per stem at maturity                     29.95          -99
      Emergence day (dap)                                      5          -99


*ENVIRONMENTAL AND STRESS FACTORS

 |-----Development Phase------|--------------------------------------Environment--------------------------------------|-----------------Stress-----------------|
                              |---------------Average--------------|-----Cumulative-----|--------Count of days--------|          (0=Min, 1=Max Stress)         |
                         Time  Temp  Temp  Temp Solar Photop                Evapo    Pot TMIN TMIN TMAX TMAX TMAX RAIN|----Water----|---Nitrogen--|-Phosphorus-|
                         Span   Max   Min  Mean   Rad  [day]    CO2   Rain  Trans     ET   <    <    >    >    >    >   Photo         Photo         Photo
                         days    邂    邂    邂 MJ/m2     hr    ppm     mm     mm     mm  0邂  2邂 30邂 32邂 34邂  0mm  synth Growth  synth Growth  synth Growth
----------------------------------------------------------------------------------------------------------------------------------------------------------------
 Emergence-End Juvenile    15  34.3  20.8  27.5  19.5  24.00  347.2    0.0   10.7   84.3    0    0   14   14   10    0  0.049  0.153  0.002  0.006  0.000  0.000
 End Juvenil-Floral Init    8  36.1  22.3  29.2  21.7  24.00  347.2    0.0   13.5   50.6    0    0    8    8    8    0  0.339  0.560  0.001  0.002  0.000  0.000
 Floral Init-End Lf Grow   35  34.6  22.6  28.6  19.4  20.98  347.3   48.3   86.8  185.3    0    0   35   29   20    9  0.489  0.610  0.000  0.000  0.000  0.000
 End Lf Grth-Beg Grn Fil    8  36.5  24.5  30.5  21.1  12.77  347.4   20.8    5.3   50.4    0    0    8    8    8    4  0.918  0.946  0.000  0.000  0.000  0.000
 Grain Filling Phase       48  30.4  21.3  25.9  17.6   3.19  347.5  326.6  206.9  219.6    0    0   26    6    1   33  0.000  0.000  0.000  0.000  0.000  0.000


 Planting to Harvest      121  33.1  21.9  27.5  18.9  13.73  347.4  395.7  332.6  625.4    0    0   98   71   49   46  0.231  0.295  0.000  0.001  0.000  0.000
----------------------------------------------------------------------------------------------------------------------------------------------------------------


*Resource Productivity
 Growing season length: 121 days 

 Precipitation during growing season       395.7 mm[rain]
   Dry Matter Productivity                  1.47 kg[DM]/m3[rain]          =   14.7 kg[DM]/ha per mm[rain]
   Yield Productivity                       0.36 kg[grain yield]/m3[rain] =    3.6 kg[yield]/ha per mm[rain]

 Evapotranspiration during growing season  332.6 mm[ET]
   Dry Matter Productivity                  1.75 kg[DM]/m3[ET]            =   17.5 kg[DM]/ha per mm[ET]
   Yield Productivity                       0.43 kg[grain yield]/m3[ET]   =    4.3 kg[yield]/ha per mm[ET]

 Transpiration during growing season       203.6 mm[EP]
   Dry Matter Productivity                  2.85 kg[DM]/m3[EP]            =   28.5 kg[DM]/ha per mm[EP]
   Yield Productivity                       0.71 kg[grain yield]/m3[EP]   =    7.1 kg[yield]/ha per mm[EP]

 N applied during growing season            162. kg[N applied]/ha
   Dry Matter Productivity                  35.8 kg[DM]/kg[N applied]
   Yield Productivity                        8.9 kg[yield]/kg[N applied]

 N uptake during growing season              118 kg[N uptake]/ha
   Dry Matter Productivity                  49.2 kg[DM]/kg[N uptake]
   Yield Productivity                       12.2 kg[yield]/kg[N uptake]

--------------------------------------------------------------------------------------------------------------

                     Maize YIELD :     1436 kg/ha    [Dry weight] 

**************************************************************************************************************

*DSSAT Cropping System Model Ver. 4.6.1.000 -release      OCT 02, 2017; 12:58:56
                                                                                
*RUN   2        : P07/19                    MZCER046 ANES1986    2              
 MODEL          : MZCER046 - Maize                                              
 EXPERIMENT     : ANES1986 MZ  Analisis a침os de bajo rendimiento Espinal       
 DATA PATH      : C:\DSSAT46\maize\                                             
 TREATMENT  2   : P07/19                    MZCER046                            
                                                                                
                                                                                
 CROP           : Maize            CULTIVAR : DK234            ECOTYPE :IB0001  
 STARTING DATE  : JUN 19 1986                                                   
 PLANTING DATE  : JUL 19 1986        PLANTS/m2 :  6.2     ROW SPACING :  80.cm  
 WEATHER        : CNAT   1986                                                   
 SOIL           : CCESPI2017     TEXTURE : SL    -   Suelo Espinal Calibraci    
 SOIL INITIAL C : DEPTH:100cm EXTR. H2O: 83.6mm  NO3:100.0kg/ha  NH4: 72.3kg/ha 
 WATER BALANCE  : RAINFED                                                       
 IRRIGATION     : NOT IRRIGATED                                                 
 NITROGEN BAL.  : SOIL-N & N-UPTAKE SIMULATION; NO N-FIXATION                   
 N-FERTILIZER   :      162 kg/ha IN     6 APPLICATIONS                          
 RESIDUE/MANURE : INITIAL :     0 kg/ha ;       0 kg/ha IN     0 APPLICATIONS   
 ENVIRONM. OPT. : DAYL=    0.00  SRAD=    0.00  TMAX=    0.00  TMIN=    0.00    
                  RAIN=    0.00  CO2 =    0.00  DEW =    0.00  WIND=    0.00    
 SIMULATION OPT : WATER   :Y  NITROGEN:Y  N-FIX:N  PHOSPH :N  PESTS  :N         
                  PHOTO   :C  ET      :R  INFIL:S  HYDROL :R  SOM    :G         
                  CO2 347ppm  NSWIT   :1  EVAP :S  SOIL   :2  STEMP  :D         
 MANAGEMENT OPT : PLANTING:R  IRRIG   :N  FERT :D  RESIDUE:R  HARVEST:M         
                  WEATHER :M  TILLAGE :N                                        
                                                                                
*SUMMARY OF SOIL AND GENETIC INPUT PARAMETERS                                   
                                                                                
   SOIL LOWER UPPER   SAT  EXTR  INIT   ROOT   BULK     pH    NO3    NH4    ORG 
  DEPTH LIMIT LIMIT    SW    SW    SW   DIST   DENS                          C  
   cm   cm3/cm3    cm3/cm3    cm3/cm3         g/cm3         ugN/g  ugN/g     %  
------------------------------------------------------------------------------- 
  0-  5 0.160 0.252 0.376 0.092 0.252   1.00   1.69   6.60   8.90   4.51   0.45 
  5- 15 0.160 0.252 0.376 0.092 0.252   1.00   1.69   6.60   8.90   4.51   0.45 
 15- 30 0.160 0.252 0.376 0.092 0.252   1.00   1.69   6.60   8.90   4.51   0.45 
 30- 53 0.120 0.200 0.440 0.080 0.200   0.27   1.40   7.10   5.60   5.04   0.17 
 53- 77 0.120 0.200 0.440 0.080 0.200   0.27   1.40   7.10   5.60   5.04   0.17 
 77-100 0.120 0.200 0.440 0.080 0.200   0.27   1.40   7.10   5.60   5.04   0.17 
                                                                                
TOT-100  13.2  21.6  42.1   8.4  21.6  <--cm   -  kg/ha-->  100.0   72.3  39475 
SOIL ALBEDO    : 0.09      EVAPORATION LIMIT : 6.00         MIN. FACTOR  : 1.00 
RUNOFF CURVE # :76.00      DRAINAGE RATE     : 0.60         FERT. FACTOR : 1.00 
                                                                                
 Maize      CULTIVAR :CI0002-DK234              ECOTYPE :IB0001                 
 P1     : 300.00  P2     : 0.4000  P5     :1075.00                              
 G2     : 890.00  G3     :  7.750  PHINT  : 40.000                              


*SIMULATED CROP AND SOIL STATUS AT MAIN DEVELOPMENT STAGES

 RUN NO.     2     P07/19                  

        CROP GROWTH     BIOMASS         LEAF   CROP N     STRESS      STRESS                                           
   DATE  AGE STAGE        kg/ha    LAI   NUM  kg/ha  %   H2O  Nitr Phos1 Phos2  RSTG                                   
 ------  --- ----------   -----  -----  ----  ---  ---  ----  ----  ----  ----  ----                                   
 19 JUN    0 Start Sim        0   0.00   0.0    0  0.0  0.00  0.00  0.00  0.00     7
 19 JUL    0 Sowing           0   0.00   0.0    0  0.0  0.00  0.00  0.00  0.00     8
 20 JUL    1 Germinate        0   0.00   0.0    0  0.0  0.00  0.00  0.00  0.00     9
 24 JUL    5 Emergence       25   0.01   2.3    1  4.4  0.00  0.01  0.00  0.00     1
  7 AUG   19 End Juveni     303   0.55  10.3   11  3.7  0.13  0.00  0.00  0.00     2
 15 AUG   27 Floral Ini     770   1.11  14.4   29  3.8  0.43  0.00  0.00  0.00     3
 18 SEP   61 75% Silkin    4170   1.46  29.2  110  2.6  0.61  0.00  0.00  0.00     4
 26 SEP   69 Beg Gr Fil    4653   1.22  29.2  110  2.4  0.47  0.00  0.00  0.00     5
 13 NOV  117 End Gr Fil    8699   1.22  29.2  111  1.3  0.00  0.00  0.00  0.00     6
 15 NOV  119 Maturity      8699   1.22  29.2  111  1.3  0.00  0.00  0.00  0.00    10
 15 NOV  119 Harvest       8699   1.22  29.2  111  1.3  0.00  0.00  0.00  0.00    10


*MAIN GROWTH AND DEVELOPMENT VARIABLES

@     VARIABLE                                         SIMULATED     MEASURED
      --------                                         ---------     --------
      Anthesis day (dap)                                      61          -99
      Physiological maturity day (dap)                       119          -99
      Yield at harvest maturity (kg [dm]/ha)                4121          -99
      Number at maturity (no/m2)                            1137          -99
      Unit wt at maturity (g [dm]/unit)                   0.3623          -99
      Number at maturity (no/unit)                         183.5          -99
      Tops weight at maturity (kg [dm]/ha)                  8699          -99
      By-product produced (stalk) at maturity (kg[dm]/ha    4638          -99
      Leaf area index, maximum                              2.53          -99
      Harvest index at maturity                            0.474          -99
      Grain N at maturity (kg/ha)                             71          -99
      Tops N at maturity (kg/ha)                             111          -99
      Stem N at maturity (kg/ha)                              40          -99
      Grain N at maturity (%)                                1.7          -99
      Tops weight at anthesis (kg [dm]/ha)                  4181          -99
      Tops N at anthesis (kg/ha)                             110          -99
      Leaf number per stem at maturity                     29.21          -99
      Emergence day (dap)                                      5          -99


*ENVIRONMENTAL AND STRESS FACTORS

 |-----Development Phase------|--------------------------------------Environment--------------------------------------|-----------------Stress-----------------|
                              |---------------Average--------------|-----Cumulative-----|--------Count of days--------|          (0=Min, 1=Max Stress)         |
                         Time  Temp  Temp  Temp Solar Photop                Evapo    Pot TMIN TMIN TMAX TMAX TMAX RAIN|----Water----|---Nitrogen--|-Phosphorus-|
                         Span   Max   Min  Mean   Rad  [day]    CO2   Rain  Trans     ET   <    <    >    >    >    >   Photo         Photo         Photo
                         days    邂    邂    邂 MJ/m2     hr    ppm     mm     mm     mm  0邂  2邂 30邂 32邂 34邂  0mm  synth Growth  synth Growth  synth Growth
----------------------------------------------------------------------------------------------------------------------------------------------------------------
 Emergence-End Juvenile    14  35.0  21.5  28.2  19.6  24.00  347.2    0.0   10.2   80.2    0    0   14   14   12    0  0.000  0.091  0.002  0.006  0.000  0.000
 End Juvenil-Floral Init    8  35.7  21.7  28.7  19.9  24.00  347.2    0.0   13.6   46.3    0    0    8    8    7    0  0.248  0.439  0.000  0.000  0.000  0.000
 Floral Init-End Lf Grow   34  34.8  22.8  28.8  20.3  19.98  347.3   48.7   89.7  189.2    0    0   34   28   20   10  0.503  0.600  0.000  0.000  0.000  0.000
 End Lf Grth-Beg Grn Fil    8  34.8  23.4  29.1  19.8  11.74  347.4   74.2   19.7   44.5    0    0    8    7    5    5  0.566  0.586  0.000  0.000  0.000  0.000
 Grain Filling Phase       48  30.4  21.4  25.9  17.5   2.51  347.5  272.8  202.2  216.4    0    0   26    6    1   31  0.000  0.000  0.000  0.000  0.000  0.000


 Planting to Harvest      119  33.0  22.0  27.5  18.9  12.96  347.4  395.7  343.6  613.8    0    0   96   68   47   46  0.198  0.251  0.000  0.001  0.000  0.000
----------------------------------------------------------------------------------------------------------------------------------------------------------------


*Resource Productivity
 Growing season length: 119 days 

 Precipitation during growing season       395.7 mm[rain]
   Dry Matter Productivity                  2.20 kg[DM]/m3[rain]          =   22.0 kg[DM]/ha per mm[rain]
   Yield Productivity                       1.04 kg[grain yield]/m3[rain] =   10.4 kg[yield]/ha per mm[rain]

 Evapotranspiration during growing season  343.6 mm[ET]
   Dry Matter Productivity                  2.53 kg[DM]/m3[ET]            =   25.3 kg[DM]/ha per mm[ET]
   Yield Productivity                       1.20 kg[grain yield]/m3[ET]   =   12.0 kg[yield]/ha per mm[ET]

 Transpiration during growing season       224.4 mm[EP]
   Dry Matter Productivity                  3.88 kg[DM]/m3[EP]            =   38.8 kg[DM]/ha per mm[EP]
   Yield Productivity                       1.84 kg[grain yield]/m3[EP]   =   18.4 kg[yield]/ha per mm[EP]

 N applied during growing season            162. kg[N applied]/ha
   Dry Matter Productivity                  53.7 kg[DM]/kg[N applied]
   Yield Productivity                       25.4 kg[yield]/kg[N applied]

 N uptake during growing season              131 kg[N uptake]/ha
   Dry Matter Productivity                  66.4 kg[DM]/kg[N uptake]
   Yield Productivity                       31.5 kg[yield]/kg[N uptake]

--------------------------------------------------------------------------------------------------------------

                     Maize YIELD :     4121 kg/ha    [Dry weight] 

**************************************************************************************************************

*DSSAT Cropping System Model Ver. 4.6.1.000 -release      OCT 02, 2017; 12:58:56
                                                                                
*RUN   3        : P07/24                    MZCER046 ANES1986    3              
 MODEL          : MZCER046 - Maize                                              
 EXPERIMENT     : ANES1986 MZ  Analisis a침os de bajo rendimiento Espinal       
 DATA PATH      : C:\DSSAT46\maize\                                             
 TREATMENT  3   : P07/24                    MZCER046                            
                                                                                
                                                                                
 CROP           : Maize            CULTIVAR : DK234            ECOTYPE :IB0001  
 STARTING DATE  : JUN 24 1986                                                   
 PLANTING DATE  : JUL 24 1986        PLANTS/m2 :  6.2     ROW SPACING :  80.cm  
 WEATHER        : CNAT   1986                                                   
 SOIL           : CCESPI2017     TEXTURE : SL    -   Suelo Espinal Calibraci    
 SOIL INITIAL C : DEPTH:100cm EXTR. H2O: 83.6mm  NO3:100.0kg/ha  NH4: 72.3kg/ha 
 WATER BALANCE  : RAINFED                                                       
 IRRIGATION     : NOT IRRIGATED                                                 
 NITROGEN BAL.  : SOIL-N & N-UPTAKE SIMULATION; NO N-FIXATION                   
 N-FERTILIZER   :      162 kg/ha IN     6 APPLICATIONS                          
 RESIDUE/MANURE : INITIAL :     0 kg/ha ;       0 kg/ha IN     0 APPLICATIONS   
 ENVIRONM. OPT. : DAYL=    0.00  SRAD=    0.00  TMAX=    0.00  TMIN=    0.00    
                  RAIN=    0.00  CO2 =    0.00  DEW =    0.00  WIND=    0.00    
 SIMULATION OPT : WATER   :Y  NITROGEN:Y  N-FIX:N  PHOSPH :N  PESTS  :N         
                  PHOTO   :C  ET      :R  INFIL:S  HYDROL :R  SOM    :G         
                  CO2 347ppm  NSWIT   :1  EVAP :S  SOIL   :2  STEMP  :D         
 MANAGEMENT OPT : PLANTING:R  IRRIG   :N  FERT :D  RESIDUE:R  HARVEST:M         
                  WEATHER :M  TILLAGE :N                                        
                                                                                
*SUMMARY OF SOIL AND GENETIC INPUT PARAMETERS                                   
                                                                                
   SOIL LOWER UPPER   SAT  EXTR  INIT   ROOT   BULK     pH    NO3    NH4    ORG 
  DEPTH LIMIT LIMIT    SW    SW    SW   DIST   DENS                          C  
   cm   cm3/cm3    cm3/cm3    cm3/cm3         g/cm3         ugN/g  ugN/g     %  
------------------------------------------------------------------------------- 
  0-  5 0.160 0.252 0.376 0.092 0.252   1.00   1.69   6.60   8.90   4.51   0.45 
  5- 15 0.160 0.252 0.376 0.092 0.252   1.00   1.69   6.60   8.90   4.51   0.45 
 15- 30 0.160 0.252 0.376 0.092 0.252   1.00   1.69   6.60   8.90   4.51   0.45 
 30- 53 0.120 0.200 0.440 0.080 0.200   0.27   1.40   7.10   5.60   5.04   0.17 
 53- 77 0.120 0.200 0.440 0.080 0.200   0.27   1.40   7.10   5.60   5.04   0.17 
 77-100 0.120 0.200 0.440 0.080 0.200   0.27   1.40   7.10   5.60   5.04   0.17 
                                                                                
TOT-100  13.2  21.6  42.1   8.4  21.6  <--cm   -  kg/ha-->  100.0   72.3  39475 
SOIL ALBEDO    : 0.09      EVAPORATION LIMIT : 6.00         MIN. FACTOR  : 1.00 
RUNOFF CURVE # :76.00      DRAINAGE RATE     : 0.60         FERT. FACTOR : 1.00 
                                                                                
 Maize      CULTIVAR :CI0002-DK234              ECOTYPE :IB0001                 
 P1     : 300.00  P2     : 0.4000  P5     :1075.00                              
 G2     : 890.00  G3     :  7.750  PHINT  : 40.000                              


*SIMULATED CROP AND SOIL STATUS AT MAIN DEVELOPMENT STAGES

 RUN NO.     3     P07/24                  

        CROP GROWTH     BIOMASS         LEAF   CROP N     STRESS      STRESS                                           
   DATE  AGE STAGE        kg/ha    LAI   NUM  kg/ha  %   H2O  Nitr Phos1 Phos2  RSTG                                   
 ------  --- ----------   -----  -----  ----  ---  ---  ----  ----  ----  ----  ----                                   
 24 JUN    0 Start Sim        0   0.00   0.0    0  0.0  0.00  0.00  0.00  0.00     7
 24 JUL    0 Sowing           0   0.00   0.0    0  0.0  0.00  0.00  0.00  0.00     8
 25 JUL    1 Germinate        0   0.00   0.0    0  0.0  0.00  0.00  0.00  0.00     9
 29 JUL    5 Emergence       25   0.00   2.3    1  4.4  0.00  0.01  0.00  0.00     1
 12 AUG   19 End Juveni     312   0.57  10.4   10  3.2  0.15  0.00  0.00  0.00     2
 19 AUG   26 Floral Ini     828   1.24  13.8   30  3.6  0.27  0.00  0.00  0.00     3
 21 SEP   59 75% Silkin    3682   1.34  28.3   95  2.6  0.65  0.00  0.00  0.00     4
 30 SEP   68 Beg Gr Fil    4720   1.28  28.3   95  2.0  0.10  0.00  0.00  0.00     5
 16 NOV  115 End Gr Fil   10244   1.26  28.3  133  1.3  0.00  0.00  0.00  0.00     6
 18 NOV  117 Maturity     10244   1.26  28.3  133  1.3  0.00  0.00  0.00  0.00    10
 18 NOV  117 Harvest      10244   1.26  28.3  133  1.3  0.00  0.00  0.00  0.00    10


*MAIN GROWTH AND DEVELOPMENT VARIABLES

@     VARIABLE                                         SIMULATED     MEASURED
      --------                                         ---------     --------
      Anthesis day (dap)                                      59          -99
      Physiological maturity day (dap)                       117          -99
      Yield at harvest maturity (kg [dm]/ha)                5648          -99
      Number at maturity (no/m2)                            1597          -99
      Unit wt at maturity (g [dm]/unit)                   0.3536          -99
      Number at maturity (no/unit)                         257.6          -99
      Tops weight at maturity (kg [dm]/ha)                 10244          -99
      By-product produced (stalk) at maturity (kg[dm]/ha    4654          -99
      Leaf area index, maximum                              2.41          -99
      Harvest index at maturity                            0.551          -99
      Grain N at maturity (kg/ha)                             98          -99
      Tops N at maturity (kg/ha)                             133          -99
      Stem N at maturity (kg/ha)                              36          -99
      Grain N at maturity (%)                                1.7          -99
      Tops weight at anthesis (kg [dm]/ha)                  3686          -99
      Tops N at anthesis (kg/ha)                              95          -99
      Leaf number per stem at maturity                     28.33          -99
      Emergence day (dap)                                      5          -99


*ENVIRONMENTAL AND STRESS FACTORS

 |-----Development Phase------|--------------------------------------Environment--------------------------------------|-----------------Stress-----------------|
                              |---------------Average--------------|-----Cumulative-----|--------Count of days--------|          (0=Min, 1=Max Stress)         |
                         Time  Temp  Temp  Temp Solar Photop                Evapo    Pot TMIN TMIN TMAX TMAX TMAX RAIN|----Water----|---Nitrogen--|-Phosphorus-|
                         Span   Max   Min  Mean   Rad  [day]    CO2   Rain  Trans     ET   <    <    >    >    >    >   Photo         Photo         Photo
                         days    邂    邂    邂 MJ/m2     hr    ppm     mm     mm     mm  0邂  2邂 30邂 32邂 34邂  0mm  synth Growth  synth Growth  synth Growth
----------------------------------------------------------------------------------------------------------------------------------------------------------------
 Emergence-End Juvenile    14  35.5  21.6  28.5  20.3  24.00  347.2    0.0   10.0   84.9    0    0   14   14   13    0  0.020  0.137  0.002  0.006  0.000  0.000
 End Juvenil-Floral Init    7  33.1  21.6  27.4  16.0  24.00  347.3   19.1   13.6   30.3    0    0    7    4    2    2  0.127  0.306  0.001  0.001  0.000  0.000
 Floral Init-End Lf Grow   33  35.3  23.2  29.3  20.8  18.82  347.3   29.8   86.3  192.5    0    0   33   30   23    9  0.530  0.626  0.000  0.000  0.000  0.000
 End Lf Grth-Beg Grn Fil    9  31.5  21.6  26.6  16.8  10.54  347.4  114.9   31.6   39.5    0    0    6    5    2    8  0.195  0.204  0.000  0.000  0.000  0.000
 Grain Filling Phase       47  30.7  21.6  26.1  17.9   1.74  347.5  231.9  199.3  216.6    0    0   28    7    1   27  0.000  0.000  0.000  0.000  0.000  0.000


 Planting to Harvest      117  33.0  22.1  27.5  19.0  12.15  347.4  395.7  350.2  605.7    0    0   95   67   46   46  0.175  0.227  0.000  0.001  0.000  0.000
----------------------------------------------------------------------------------------------------------------------------------------------------------------


*Resource Productivity
 Growing season length: 117 days 

 Precipitation during growing season       395.7 mm[rain]
   Dry Matter Productivity                  2.59 kg[DM]/m3[rain]          =   25.9 kg[DM]/ha per mm[rain]
   Yield Productivity                       1.43 kg[grain yield]/m3[rain] =   14.3 kg[yield]/ha per mm[rain]

 Evapotranspiration during growing season  350.2 mm[ET]
   Dry Matter Productivity                  2.93 kg[DM]/m3[ET]            =   29.3 kg[DM]/ha per mm[ET]
   Yield Productivity                       1.61 kg[grain yield]/m3[ET]   =   16.1 kg[yield]/ha per mm[ET]

 Transpiration during growing season       231.5 mm[EP]
   Dry Matter Productivity                  4.42 kg[DM]/m3[EP]            =   44.2 kg[DM]/ha per mm[EP]
   Yield Productivity                       2.44 kg[grain yield]/m3[EP]   =   24.4 kg[yield]/ha per mm[EP]

 N applied during growing season            162. kg[N applied]/ha
   Dry Matter Productivity                  63.2 kg[DM]/kg[N applied]
   Yield Productivity                       34.9 kg[yield]/kg[N applied]

 N uptake during growing season              153 kg[N uptake]/ha
   Dry Matter Productivity                  67.0 kg[DM]/kg[N uptake]
   Yield Productivity                       36.9 kg[yield]/kg[N uptake]

--------------------------------------------------------------------------------------------------------------

                     Maize YIELD :     5648 kg/ha    [Dry weight] 

**************************************************************************************************************

*DSSAT Cropping System Model Ver. 4.6.1.000 -release      OCT 02, 2017; 12:58:56
                                                                                
*RUN   4        : P07/29                    MZCER046 ANES1986    4              
 MODEL          : MZCER046 - Maize                                              
 EXPERIMENT     : ANES1986 MZ  Analisis a침os de bajo rendimiento Espinal       
 DATA PATH      : C:\DSSAT46\maize\                                             
 TREATMENT  4   : P07/29                    MZCER046                            
                                                                                
                                                                                
 CROP           : Maize            CULTIVAR : DK234            ECOTYPE :IB0001  
 STARTING DATE  : JUN 29 1986                                                   
 PLANTING DATE  : JUL 29 1986        PLANTS/m2 :  6.2     ROW SPACING :  80.cm  
 WEATHER        : CNAT   1986                                                   
 SOIL           : CCESPI2017     TEXTURE : SL    -   Suelo Espinal Calibraci    
 SOIL INITIAL C : DEPTH:100cm EXTR. H2O: 83.6mm  NO3:100.0kg/ha  NH4: 72.3kg/ha 
 WATER BALANCE  : RAINFED                                                       
 IRRIGATION     : NOT IRRIGATED                                                 
 NITROGEN BAL.  : SOIL-N & N-UPTAKE SIMULATION; NO N-FIXATION                   
 N-FERTILIZER   :      162 kg/ha IN     6 APPLICATIONS                          
 RESIDUE/MANURE : INITIAL :     0 kg/ha ;       0 kg/ha IN     0 APPLICATIONS   
 ENVIRONM. OPT. : DAYL=    0.00  SRAD=    0.00  TMAX=    0.00  TMIN=    0.00    
                  RAIN=    0.00  CO2 =    0.00  DEW =    0.00  WIND=    0.00    
 SIMULATION OPT : WATER   :Y  NITROGEN:Y  N-FIX:N  PHOSPH :N  PESTS  :N         
                  PHOTO   :C  ET      :R  INFIL:S  HYDROL :R  SOM    :G         
                  CO2 347ppm  NSWIT   :1  EVAP :S  SOIL   :2  STEMP  :D         
 MANAGEMENT OPT : PLANTING:R  IRRIG   :N  FERT :D  RESIDUE:R  HARVEST:M         
                  WEATHER :M  TILLAGE :N                                        
                                                                                
*SUMMARY OF SOIL AND GENETIC INPUT PARAMETERS                                   
                                                                                
   SOIL LOWER UPPER   SAT  EXTR  INIT   ROOT   BULK     pH    NO3    NH4    ORG 
  DEPTH LIMIT LIMIT    SW    SW    SW   DIST   DENS                          C  
   cm   cm3/cm3    cm3/cm3    cm3/cm3         g/cm3         ugN/g  ugN/g     %  
------------------------------------------------------------------------------- 
  0-  5 0.160 0.252 0.376 0.092 0.252   1.00   1.69   6.60   8.90   4.51   0.45 
  5- 15 0.160 0.252 0.376 0.092 0.252   1.00   1.69   6.60   8.90   4.51   0.45 
 15- 30 0.160 0.252 0.376 0.092 0.252   1.00   1.69   6.60   8.90   4.51   0.45 
 30- 53 0.120 0.200 0.440 0.080 0.200   0.27   1.40   7.10   5.60   5.04   0.17 
 53- 77 0.120 0.200 0.440 0.080 0.200   0.27   1.40   7.10   5.60   5.04   0.17 
 77-100 0.120 0.200 0.440 0.080 0.200   0.27   1.40   7.10   5.60   5.04   0.17 
                                                                                
TOT-100  13.2  21.6  42.1   8.4  21.6  <--cm   -  kg/ha-->  100.0   72.3  39475 
SOIL ALBEDO    : 0.09      EVAPORATION LIMIT : 6.00         MIN. FACTOR  : 1.00 
RUNOFF CURVE # :76.00      DRAINAGE RATE     : 0.60         FERT. FACTOR : 1.00 
                                                                                
 Maize      CULTIVAR :CI0002-DK234              ECOTYPE :IB0001                 
 P1     : 300.00  P2     : 0.4000  P5     :1075.00                              
 G2     : 890.00  G3     :  7.750  PHINT  : 40.000                              


*SIMULATED CROP AND SOIL STATUS AT MAIN DEVELOPMENT STAGES

 RUN NO.     4     P07/29                  

        CROP GROWTH     BIOMASS         LEAF   CROP N     STRESS      STRESS                                           
   DATE  AGE STAGE        kg/ha    LAI   NUM  kg/ha  %   H2O  Nitr Phos1 Phos2  RSTG                                   
 ------  --- ----------   -----  -----  ----  ---  ---  ----  ----  ----  ----  ----                                   
 29 JUN    0 Start Sim        0   0.00   0.0    0  0.0  0.00  0.00  0.00  0.00     7
 29 JUL    0 Sowing           0   0.00   0.0    0  0.0  0.00  0.00  0.00  0.00     8
 30 JUL    1 Germinate        0   0.00   0.0    0  0.0  0.00  0.00  0.00  0.00     9
  3 AUG    5 Emergence       25   0.01   2.3    1  4.4  0.00  0.01  0.00  0.00     1
 17 AUG   19 End Juveni     295   0.53  10.4   10  3.6  0.18  0.00  0.00  0.00     2
 24 AUG   26 Floral Ini    1040   1.50  13.8   37  3.6  0.06  0.00  0.00  0.00     3
 26 SEP   59 75% Silkin    4276   1.64  28.1   90  2.1  0.60  0.00  0.00  0.00     4
  5 OCT   68 Beg Gr Fil    5673   1.64  28.1   90  1.6  0.00  0.00  0.00  0.00     5
 21 NOV  115 End Gr Fil   12879   1.31  28.1  167  1.3  0.01  0.00  0.00  0.00     6
 23 NOV  117 Maturity     12879   1.31  28.1  167  1.3  0.43  0.00  0.00  0.00    10
 23 NOV  117 Harvest      12879   1.31  28.1  167  1.3  0.00  0.00  0.00  0.00    10


*MAIN GROWTH AND DEVELOPMENT VARIABLES

@     VARIABLE                                         SIMULATED     MEASURED
      --------                                         ---------     --------
      Anthesis day (dap)                                      59          -99
      Physiological maturity day (dap)                       117          -99
      Yield at harvest maturity (kg [dm]/ha)                7369          -99
      Number at maturity (no/m2)                            2099          -99
      Unit wt at maturity (g [dm]/unit)                   0.3510          -99
      Number at maturity (no/unit)                         338.6          -99
      Tops weight at maturity (kg [dm]/ha)                 12879          -99
      By-product produced (stalk) at maturity (kg[dm]/ha    5571          -99
      Leaf area index, maximum                              2.43          -99
      Harvest index at maturity                            0.572          -99
      Grain N at maturity (kg/ha)                            128          -99
      Tops N at maturity (kg/ha)                             167          -99
      Stem N at maturity (kg/ha)                              39          -99
      Grain N at maturity (%)                                1.7          -99
      Tops weight at anthesis (kg [dm]/ha)                  4109          -99
      Tops N at anthesis (kg/ha)                              90          -99
      Leaf number per stem at maturity                     28.13          -99
      Emergence day (dap)                                      5          -99


*ENVIRONMENTAL AND STRESS FACTORS

 |-----Development Phase------|--------------------------------------Environment--------------------------------------|-----------------Stress-----------------|
                              |---------------Average--------------|-----Cumulative-----|--------Count of days--------|          (0=Min, 1=Max Stress)         |
                         Time  Temp  Temp  Temp Solar Photop                Evapo    Pot TMIN TMIN TMAX TMAX TMAX RAIN|----Water----|---Nitrogen--|-Phosphorus-|
                         Span   Max   Min  Mean   Rad  [day]    CO2   Rain  Trans     ET   <    <    >    >    >    >   Photo         Photo         Photo
                         days    邂    邂    邂 MJ/m2     hr    ppm     mm     mm     mm  0邂  2邂 30邂 32邂 34邂  0mm  synth Growth  synth Growth  synth Growth
----------------------------------------------------------------------------------------------------------------------------------------------------------------
 Emergence-End Juvenile    14  35.1  22.2  28.6  18.5  24.00  347.2    0.7    8.2   78.1    0    0   14   12   11    1  0.017  0.132  0.002  0.005  0.000  0.000
 End Juvenil-Floral Init    7  33.4  21.9  27.6  20.4  24.00  347.3   29.6   29.0   39.5    0    0    7    5    2    4  0.070  0.116  0.000  0.001  0.000  0.000
 Floral Init-End Lf Grow   33  35.3  23.1  29.2  20.6  16.89  347.4   92.6   89.8  189.9    0    0   33   30   23   10  0.488  0.605  0.000  0.000  0.000  0.000
 End Lf Grth-Beg Grn Fil    9  30.0  21.1  25.5  15.8   8.74  347.4   87.3   35.9   35.9    0    0    4    2    1    7  0.000  0.000  0.000  0.000  0.000  0.000
 Grain Filling Phase       47  30.9  21.7  26.3  18.2   0.89  347.6  187.5  200.9  217.7    0    0   30    9    1   25  0.000  0.002  0.000  0.000  0.000  0.000


 Planting to Harvest      117  32.9  22.1  27.5  19.0  11.13  347.4  397.7  371.5  599.7    0    0   95   64   43   47  0.145  0.199  0.000  0.001  0.000  0.000
----------------------------------------------------------------------------------------------------------------------------------------------------------------


*Resource Productivity
 Growing season length: 117 days 

 Precipitation during growing season       397.7 mm[rain]
   Dry Matter Productivity                  3.24 kg[DM]/m3[rain]          =   32.4 kg[DM]/ha per mm[rain]
   Yield Productivity                       1.85 kg[grain yield]/m3[rain] =   18.5 kg[yield]/ha per mm[rain]

 Evapotranspiration during growing season  371.5 mm[ET]
   Dry Matter Productivity                  3.47 kg[DM]/m3[ET]            =   34.7 kg[DM]/ha per mm[ET]
   Yield Productivity                       1.98 kg[grain yield]/m3[ET]   =   19.8 kg[yield]/ha per mm[ET]

 Transpiration during growing season       266.2 mm[EP]
   Dry Matter Productivity                  4.84 kg[DM]/m3[EP]            =   48.4 kg[DM]/ha per mm[EP]
   Yield Productivity                       2.77 kg[grain yield]/m3[EP]   =   27.7 kg[yield]/ha per mm[EP]

 N applied during growing season            162. kg[N applied]/ha
   Dry Matter Productivity                  79.5 kg[DM]/kg[N applied]
   Yield Productivity                       45.5 kg[yield]/kg[N applied]

 N uptake during growing season              189 kg[N uptake]/ha
   Dry Matter Productivity                  68.1 kg[DM]/kg[N uptake]
   Yield Productivity                       39.0 kg[yield]/kg[N uptake]

--------------------------------------------------------------------------------------------------------------

                     Maize YIELD :     7369 kg/ha    [Dry weight] 

**************************************************************************************************************

*DSSAT Cropping System Model Ver. 4.6.1.000 -release      OCT 02, 2017; 12:58:56
                                                                                
*RUN   5        : P08/03                    MZCER046 ANES1986    5              
 MODEL          : MZCER046 - Maize                                              
 EXPERIMENT     : ANES1986 MZ  Analisis a침os de bajo rendimiento Espinal       
 DATA PATH      : C:\DSSAT46\maize\                                             
 TREATMENT  5   : P08/03                    MZCER046                            
                                                                                
                                                                                
 CROP           : Maize            CULTIVAR : DK234            ECOTYPE :IB0001  
 STARTING DATE  : JUL  4 1986                                                   
 PLANTING DATE  : AUG  3 1986        PLANTS/m2 :  6.2     ROW SPACING :  80.cm  
 WEATHER        : CNAT   1986                                                   
 SOIL           : CCESPI2017     TEXTURE : SL    -   Suelo Espinal Calibraci    
 SOIL INITIAL C : DEPTH:100cm EXTR. H2O: 83.6mm  NO3:100.0kg/ha  NH4: 72.3kg/ha 
 WATER BALANCE  : RAINFED                                                       
 IRRIGATION     : NOT IRRIGATED                                                 
 NITROGEN BAL.  : SOIL-N & N-UPTAKE SIMULATION; NO N-FIXATION                   
 N-FERTILIZER   :      162 kg/ha IN     6 APPLICATIONS                          
 RESIDUE/MANURE : INITIAL :     0 kg/ha ;       0 kg/ha IN     0 APPLICATIONS   
 ENVIRONM. OPT. : DAYL=    0.00  SRAD=    0.00  TMAX=    0.00  TMIN=    0.00    
                  RAIN=    0.00  CO2 =    0.00  DEW =    0.00  WIND=    0.00    
 SIMULATION OPT : WATER   :Y  NITROGEN:Y  N-FIX:N  PHOSPH :N  PESTS  :N         
                  PHOTO   :C  ET      :R  INFIL:S  HYDROL :R  SOM    :G         
                  CO2 347ppm  NSWIT   :1  EVAP :S  SOIL   :2  STEMP  :D         
 MANAGEMENT OPT : PLANTING:R  IRRIG   :N  FERT :D  RESIDUE:R  HARVEST:M         
                  WEATHER :M  TILLAGE :N                                        
                                                                                
*SUMMARY OF SOIL AND GENETIC INPUT PARAMETERS                                   
                                                                                
   SOIL LOWER UPPER   SAT  EXTR  INIT   ROOT   BULK     pH    NO3    NH4    ORG 
  DEPTH LIMIT LIMIT    SW    SW    SW   DIST   DENS                          C  
   cm   cm3/cm3    cm3/cm3    cm3/cm3         g/cm3         ugN/g  ugN/g     %  
------------------------------------------------------------------------------- 
  0-  5 0.160 0.252 0.376 0.092 0.252   1.00   1.69   6.60   8.90   4.51   0.45 
  5- 15 0.160 0.252 0.376 0.092 0.252   1.00   1.69   6.60   8.90   4.51   0.45 
 15- 30 0.160 0.252 0.376 0.092 0.252   1.00   1.69   6.60   8.90   4.51   0.45 
 30- 53 0.120 0.200 0.440 0.080 0.200   0.27   1.40   7.10   5.60   5.04   0.17 
 53- 77 0.120 0.200 0.440 0.080 0.200   0.27   1.40   7.10   5.60   5.04   0.17 
 77-100 0.120 0.200 0.440 0.080 0.200   0.27   1.40   7.10   5.60   5.04   0.17 
                                                                                
TOT-100  13.2  21.6  42.1   8.4  21.6  <--cm   -  kg/ha-->  100.0   72.3  39475 
SOIL ALBEDO    : 0.09      EVAPORATION LIMIT : 6.00         MIN. FACTOR  : 1.00 
RUNOFF CURVE # :76.00      DRAINAGE RATE     : 0.60         FERT. FACTOR : 1.00 
                                                                                
 Maize      CULTIVAR :CI0002-DK234              ECOTYPE :IB0001                 
 P1     : 300.00  P2     : 0.4000  P5     :1075.00                              
 G2     : 890.00  G3     :  7.750  PHINT  : 40.000                              


*SIMULATED CROP AND SOIL STATUS AT MAIN DEVELOPMENT STAGES

 RUN NO.     5     P08/03                  

        CROP GROWTH     BIOMASS         LEAF   CROP N     STRESS      STRESS                                           
   DATE  AGE STAGE        kg/ha    LAI   NUM  kg/ha  %   H2O  Nitr Phos1 Phos2  RSTG                                   
 ------  --- ----------   -----  -----  ----  ---  ---  ----  ----  ----  ----  ----                                   
  4 JUL    0 Start Sim        0   0.00   0.0    0  0.0  0.00  0.00  0.00  0.00     7
  3 AUG    0 Sowing           0   0.00   0.0    0  0.0  0.00  0.00  0.00  0.00     8
  4 AUG    1 Germinate        0   0.00   0.0    0  0.0  0.00  0.00  0.00  0.00     9
  8 AUG    5 Emergence       25   0.00   2.3    1  4.4  0.00  0.01  0.00  0.00     1
 22 AUG   19 End Juveni     373   0.66  10.1   12  3.1  0.04  0.00  0.00  0.00     2
 28 AUG   25 Floral Ini    1064   1.53  13.3   39  3.7  0.04  0.00  0.00  0.00     3
 29 SEP   57 75% Silkin    4263   1.76  27.5   89  2.1  0.54  0.00  0.00  0.00     4
  9 OCT   67 Beg Gr Fil    6308   1.76  27.5   91  1.4  0.00  0.00  0.00  0.00     5
 24 NOV  113 End Gr Fil   14512   1.27  27.5  187  1.3  0.05  0.00  0.00  0.00     6
 27 NOV  116 Maturity     14512   1.27  27.5  187  1.3  0.00  0.00  0.00  0.00    10
 27 NOV  116 Harvest      14512   1.27  27.5  187  1.3  0.00  0.00  0.00  0.00    10


*MAIN GROWTH AND DEVELOPMENT VARIABLES

@     VARIABLE                                         SIMULATED     MEASURED
      --------                                         ---------     --------
      Anthesis day (dap)                                      57          -99
      Physiological maturity day (dap)                       116          -99
      Yield at harvest maturity (kg [dm]/ha)                8412          -99
      Number at maturity (no/m2)                            2502          -99
      Unit wt at maturity (g [dm]/unit)                   0.3362          -99
      Number at maturity (no/unit)                         403.6          -99
      Tops weight at maturity (kg [dm]/ha)                 14512          -99
      By-product produced (stalk) at maturity (kg[dm]/ha    6159          -99
      Leaf area index, maximum                              2.27          -99
      Harvest index at maturity                            0.580          -99
      Grain N at maturity (kg/ha)                            146          -99
      Tops N at maturity (kg/ha)                             187          -99
      Stem N at maturity (kg/ha)                              41          -99
      Grain N at maturity (%)                                1.7          -99
      Tops weight at anthesis (kg [dm]/ha)                  4097          -99
      Tops N at anthesis (kg/ha)                              87          -99
      Leaf number per stem at maturity                     27.50          -99
      Emergence day (dap)                                      5          -99


*ENVIRONMENTAL AND STRESS FACTORS

 |-----Development Phase------|--------------------------------------Environment--------------------------------------|-----------------Stress-----------------|
                              |---------------Average--------------|-----Cumulative-----|--------Count of days--------|          (0=Min, 1=Max Stress)         |
                         Time  Temp  Temp  Temp Solar Photop                Evapo    Pot TMIN TMIN TMAX TMAX TMAX RAIN|----Water----|---Nitrogen--|-Phosphorus-|
                         Span   Max   Min  Mean   Rad  [day]    CO2   Rain  Trans     ET   <    <    >    >    >    >   Photo         Photo         Photo
                         days    邂    邂    邂 MJ/m2     hr    ppm     mm     mm     mm  0邂  2邂 30邂 32邂 34邂  0mm  synth Growth  synth Growth  synth Growth
----------------------------------------------------------------------------------------------------------------------------------------------------------------
 Emergence-End Juvenile    14  34.1  21.7  27.9  18.0  24.00  347.3   30.3   19.2   74.9    0    0   14   10    7    5  0.007  0.045  0.002  0.005  0.000  0.000
 End Juvenil-Floral Init    6  34.5  22.3  28.4  23.2  24.00  347.3    7.4   28.7   39.0    0    0    6    6    3    2  0.000  0.000  0.000  0.001  0.000  0.000
 Floral Init-End Lf Grow   32  34.8  23.2  29.0  19.7  15.34  347.4  125.0   84.5  176.2    0    0   30   27   21   11  0.452  0.551  0.000  0.000  0.000  0.000
 End Lf Grth-Beg Grn Fil   10  30.7  20.8  25.8  18.6   7.36  347.4   98.3   46.9   46.9    0    0    7    2    1    8  0.000  0.000  0.000  0.000  0.000  0.000
 Grain Filling Phase       46  31.0  21.9  26.4  18.1   0.38  347.6  158.7  189.3  211.0    0    0   29    9    2   22  0.027  0.050  0.000  0.000  0.000  0.000


 Planting to Harvest      116  32.8  22.2  27.5  18.9  10.19  347.4  420.7  381.6  593.9    0    0   93   60   39   49  0.136  0.177  0.000  0.001  0.000  0.000
----------------------------------------------------------------------------------------------------------------------------------------------------------------


*Resource Productivity
 Growing season length: 116 days 

 Precipitation during growing season       420.7 mm[rain]
   Dry Matter Productivity                  3.45 kg[DM]/m3[rain]          =   34.5 kg[DM]/ha per mm[rain]
   Yield Productivity                       2.00 kg[grain yield]/m3[rain] =   20.0 kg[yield]/ha per mm[rain]

 Evapotranspiration during growing season  381.6 mm[ET]
   Dry Matter Productivity                  3.80 kg[DM]/m3[ET]            =   38.0 kg[DM]/ha per mm[ET]
   Yield Productivity                       2.20 kg[grain yield]/m3[ET]   =   22.0 kg[yield]/ha per mm[ET]

 Transpiration during growing season       271.4 mm[EP]
   Dry Matter Productivity                  5.35 kg[DM]/m3[EP]            =   53.5 kg[DM]/ha per mm[EP]
   Yield Productivity                       3.10 kg[grain yield]/m3[EP]   =   31.0 kg[yield]/ha per mm[EP]

 N applied during growing season            162. kg[N applied]/ha
   Dry Matter Productivity                  89.6 kg[DM]/kg[N applied]
   Yield Productivity                       51.9 kg[yield]/kg[N applied]

 N uptake during growing season              205 kg[N uptake]/ha
   Dry Matter Productivity                  70.8 kg[DM]/kg[N uptake]
   Yield Productivity                       41.0 kg[yield]/kg[N uptake]

--------------------------------------------------------------------------------------------------------------

                     Maize YIELD :     8412 kg/ha    [Dry weight] 

**************************************************************************************************************

*DSSAT Cropping System Model Ver. 4.6.1.000 -release      OCT 02, 2017; 12:58:56
                                                                                
*RUN   6        : P08/08                    MZCER046 ANES1986    6              
 MODEL          : MZCER046 - Maize                                              
 EXPERIMENT     : ANES1986 MZ  Analisis a침os de bajo rendimiento Espinal       
 DATA PATH      : C:\DSSAT46\maize\                                             
 TREATMENT  6   : P08/08                    MZCER046                            
                                                                                
                                                                                
 CROP           : Maize            CULTIVAR : DK234            ECOTYPE :IB0001  
 STARTING DATE  : JUL  9 1986                                                   
 PLANTING DATE  : AUG  8 1986        PLANTS/m2 :  6.2     ROW SPACING :  80.cm  
 WEATHER        : CNAT   1986                                                   
 SOIL           : CCESPI2017     TEXTURE : SL    -   Suelo Espinal Calibraci    
 SOIL INITIAL C : DEPTH:100cm EXTR. H2O: 83.6mm  NO3:100.0kg/ha  NH4: 72.3kg/ha 
 WATER BALANCE  : RAINFED                                                       
 IRRIGATION     : NOT IRRIGATED                                                 
 NITROGEN BAL.  : SOIL-N & N-UPTAKE SIMULATION; NO N-FIXATION                   
 N-FERTILIZER   :      162 kg/ha IN     6 APPLICATIONS                          
 RESIDUE/MANURE : INITIAL :     0 kg/ha ;       0 kg/ha IN     0 APPLICATIONS   
 ENVIRONM. OPT. : DAYL=    0.00  SRAD=    0.00  TMAX=    0.00  TMIN=    0.00    
                  RAIN=    0.00  CO2 =    0.00  DEW =    0.00  WIND=    0.00    
 SIMULATION OPT : WATER   :Y  NITROGEN:Y  N-FIX:N  PHOSPH :N  PESTS  :N         
                  PHOTO   :C  ET      :R  INFIL:S  HYDROL :R  SOM    :G         
                  CO2 347ppm  NSWIT   :1  EVAP :S  SOIL   :2  STEMP  :D         
 MANAGEMENT OPT : PLANTING:R  IRRIG   :N  FERT :D  RESIDUE:R  HARVEST:M         
                  WEATHER :M  TILLAGE :N                                        
                                                                                
*SUMMARY OF SOIL AND GENETIC INPUT PARAMETERS                                   
                                                                                
   SOIL LOWER UPPER   SAT  EXTR  INIT   ROOT   BULK     pH    NO3    NH4    ORG 
  DEPTH LIMIT LIMIT    SW    SW    SW   DIST   DENS                          C  
   cm   cm3/cm3    cm3/cm3    cm3/cm3         g/cm3         ugN/g  ugN/g     %  
------------------------------------------------------------------------------- 
  0-  5 0.160 0.252 0.376 0.092 0.252   1.00   1.69   6.60   8.90   4.51   0.45 
  5- 15 0.160 0.252 0.376 0.092 0.252   1.00   1.69   6.60   8.90   4.51   0.45 
 15- 30 0.160 0.252 0.376 0.092 0.252   1.00   1.69   6.60   8.90   4.51   0.45 
 30- 53 0.120 0.200 0.440 0.080 0.200   0.27   1.40   7.10   5.60   5.04   0.17 
 53- 77 0.120 0.200 0.440 0.080 0.200   0.27   1.40   7.10   5.60   5.04   0.17 
 77-100 0.120 0.200 0.440 0.080 0.200   0.27   1.40   7.10   5.60   5.04   0.17 
                                                                                
TOT-100  13.2  21.6  42.1   8.4  21.6  <--cm   -  kg/ha-->  100.0   72.3  39475 
SOIL ALBEDO    : 0.09      EVAPORATION LIMIT : 6.00         MIN. FACTOR  : 1.00 
RUNOFF CURVE # :76.00      DRAINAGE RATE     : 0.60         FERT. FACTOR : 1.00 
                                                                                
 Maize      CULTIVAR :CI0002-DK234              ECOTYPE :IB0001                 
 P1     : 300.00  P2     : 0.4000  P5     :1075.00                              
 G2     : 890.00  G3     :  7.750  PHINT  : 40.000                              


*SIMULATED CROP AND SOIL STATUS AT MAIN DEVELOPMENT STAGES

 RUN NO.     6     P08/08                  

        CROP GROWTH     BIOMASS         LEAF   CROP N     STRESS      STRESS                                           
   DATE  AGE STAGE        kg/ha    LAI   NUM  kg/ha  %   H2O  Nitr Phos1 Phos2  RSTG                                   
 ------  --- ----------   -----  -----  ----  ---  ---  ----  ----  ----  ----  ----                                   
  9 JUL    0 Start Sim        0   0.00   0.0    0  0.0  0.00  0.00  0.00  0.00     7
  8 AUG    0 Sowing           0   0.00   0.0    0  0.0  0.00  0.00  0.00  0.00     8
  9 AUG    1 Germinate        0   0.00   0.0    0  0.0  0.00  0.00  0.00  0.00     9
 13 AUG    5 Emergence       25   0.00   2.2    1  4.4  0.00  0.01  0.00  0.00     1
 27 AUG   19 End Juveni     370   0.66  10.0   12  3.3  0.00  0.00  0.00  0.00     2
  1 SEP   24 Floral Ini     839   1.27  12.7   31  3.6  0.19  0.00  0.00  0.00     3
  3 OCT   56 75% Silkin    4582   1.95  26.2   92  2.0  0.45  0.00  0.00  0.00     4
 12 OCT   65 Beg Gr Fil    6410   1.95  26.2   93  1.5  0.00  0.00  0.00  0.00     5
 27 NOV  111 End Gr Fil   14625   1.24  26.2  188  1.3  0.06  0.00  0.00  0.00     6
 30 NOV  114 Maturity     14625   1.24  26.2  188  1.3  0.45  0.00  0.00  0.00    10
 30 NOV  114 Harvest      14625   1.24  26.2  188  1.3  0.00  0.00  0.00  0.00    10


*MAIN GROWTH AND DEVELOPMENT VARIABLES

@     VARIABLE                                         SIMULATED     MEASURED
      --------                                         ---------     --------
      Anthesis day (dap)                                      56          -99
      Physiological maturity day (dap)                       114          -99
      Yield at harvest maturity (kg [dm]/ha)                8411          -99
      Number at maturity (no/m2)                            2522          -99
      Unit wt at maturity (g [dm]/unit)                   0.3335          -99
      Number at maturity (no/unit)                         406.7          -99
      Tops weight at maturity (kg [dm]/ha)                 14625          -99
      By-product produced (stalk) at maturity (kg[dm]/ha    6267          -99
      Leaf area index, maximum                              1.95          -99
      Harvest index at maturity                            0.575          -99
      Grain N at maturity (kg/ha)                            146          -99
      Tops N at maturity (kg/ha)                             188          -99
      Stem N at maturity (kg/ha)                              42          -99
      Grain N at maturity (%)                                1.7          -99
      Tops weight at anthesis (kg [dm]/ha)                  4363          -99
      Tops N at anthesis (kg/ha)                              89          -99
      Leaf number per stem at maturity                     26.22          -99
      Emergence day (dap)                                      5          -99


*ENVIRONMENTAL AND STRESS FACTORS

 |-----Development Phase------|--------------------------------------Environment--------------------------------------|-----------------Stress-----------------|
                              |---------------Average--------------|-----Cumulative-----|--------Count of days--------|          (0=Min, 1=Max Stress)         |
                         Time  Temp  Temp  Temp Solar Photop                Evapo    Pot TMIN TMIN TMAX TMAX TMAX RAIN|----Water----|---Nitrogen--|-Phosphorus-|
                         Span   Max   Min  Mean   Rad  [day]    CO2   Rain  Trans     ET   <    <    >    >    >    >   Photo         Photo         Photo
                         days    邂    邂    邂 MJ/m2     hr    ppm     mm     mm     mm  0邂  2邂 30邂 32邂 34邂  0mm  synth Growth  synth Growth  synth Growth
----------------------------------------------------------------------------------------------------------------------------------------------------------------
 Emergence-End Juvenile    14  33.3  21.9  27.6  19.2  24.00  347.3   37.7   34.7   78.1    0    0   14   10    4    7  0.000  0.000  0.002  0.005  0.000  0.000
 End Juvenil-Floral Init    5  35.9  23.3  29.6  22.7  22.71  347.3    0.0   16.7   33.4    0    0    5    5    5    0  0.047  0.165  0.000  0.000  0.000  0.000
 Floral Init-End Lf Grow   32  34.2  22.8  28.5  19.1  13.61  347.4  139.8   91.1  170.7    0    0   28   24   18   13  0.379  0.452  0.000  0.000  0.000  0.000
 End Lf Grth-Beg Grn Fil    9  30.6  21.5  26.0  17.8   5.79  347.4   83.9   40.1   40.1    0    0    6    1    0    7  0.000  0.000  0.000  0.000  0.000  0.000
 Grain Filling Phase       46  31.1  21.9  26.5  18.3   0.10  347.6  159.3  191.3  213.0    0    0   30   10    2   22  0.040  0.063  0.000  0.000  0.000  0.000


 Planting to Harvest      114  32.6  22.2  27.4  18.9   9.32  347.5  422.1  383.9  580.7    0    0   91   56   34   50  0.129  0.166  0.000  0.001  0.000  0.000
----------------------------------------------------------------------------------------------------------------------------------------------------------------


*Resource Productivity
 Growing season length: 114 days 

 Precipitation during growing season       422.1 mm[rain]
   Dry Matter Productivity                  3.46 kg[DM]/m3[rain]          =   34.6 kg[DM]/ha per mm[rain]
   Yield Productivity                       1.99 kg[grain yield]/m3[rain] =   19.9 kg[yield]/ha per mm[rain]

 Evapotranspiration during growing season  383.9 mm[ET]
   Dry Matter Productivity                  3.81 kg[DM]/m3[ET]            =   38.1 kg[DM]/ha per mm[ET]
   Yield Productivity                       2.19 kg[grain yield]/m3[ET]   =   21.9 kg[yield]/ha per mm[ET]

 Transpiration during growing season       270.0 mm[EP]
   Dry Matter Productivity                  5.42 kg[DM]/m3[EP]            =   54.2 kg[DM]/ha per mm[EP]
   Yield Productivity                       3.12 kg[grain yield]/m3[EP]   =   31.2 kg[yield]/ha per mm[EP]

 N applied during growing season            162. kg[N applied]/ha
   Dry Matter Productivity                  90.3 kg[DM]/kg[N applied]
   Yield Productivity                       51.9 kg[yield]/kg[N applied]

 N uptake during growing season              206 kg[N uptake]/ha
   Dry Matter Productivity                  71.0 kg[DM]/kg[N uptake]
   Yield Productivity                       40.8 kg[yield]/kg[N uptake]

--------------------------------------------------------------------------------------------------------------

                     Maize YIELD :     8411 kg/ha    [Dry weight] 

**************************************************************************************************************

*DSSAT Cropping System Model Ver. 4.6.1.000 -release      OCT 02, 2017; 12:58:56
                                                                                
*RUN   7        : P08/13                    MZCER046 ANES1986    7              
 MODEL          : MZCER046 - Maize                                              
 EXPERIMENT     : ANES1986 MZ  Analisis a침os de bajo rendimiento Espinal       
 DATA PATH      : C:\DSSAT46\maize\                                             
 TREATMENT  7   : P08/13                    MZCER046                            
                                                                                
                                                                                
 CROP           : Maize            CULTIVAR : DK234            ECOTYPE :IB0001  
 STARTING DATE  : JUL 14 1986                                                   
 PLANTING DATE  : AUG 13 1986        PLANTS/m2 :  6.2     ROW SPACING :  80.cm  
 WEATHER        : CNAT   1986                                                   
 SOIL           : CCESPI2017     TEXTURE : SL    -   Suelo Espinal Calibraci    
 SOIL INITIAL C : DEPTH:100cm EXTR. H2O: 83.6mm  NO3:100.0kg/ha  NH4: 72.3kg/ha 
 WATER BALANCE  : RAINFED                                                       
 IRRIGATION     : NOT IRRIGATED                                                 
 NITROGEN BAL.  : SOIL-N & N-UPTAKE SIMULATION; NO N-FIXATION                   
 N-FERTILIZER   :      162 kg/ha IN     6 APPLICATIONS                          
 RESIDUE/MANURE : INITIAL :     0 kg/ha ;       0 kg/ha IN     0 APPLICATIONS   
 ENVIRONM. OPT. : DAYL=    0.00  SRAD=    0.00  TMAX=    0.00  TMIN=    0.00    
                  RAIN=    0.00  CO2 =    0.00  DEW =    0.00  WIND=    0.00    
 SIMULATION OPT : WATER   :Y  NITROGEN:Y  N-FIX:N  PHOSPH :N  PESTS  :N         
                  PHOTO   :C  ET      :R  INFIL:S  HYDROL :R  SOM    :G         
                  CO2 347ppm  NSWIT   :1  EVAP :S  SOIL   :2  STEMP  :D         
 MANAGEMENT OPT : PLANTING:R  IRRIG   :N  FERT :D  RESIDUE:R  HARVEST:M         
                  WEATHER :M  TILLAGE :N                                        
                                                                                
*SUMMARY OF SOIL AND GENETIC INPUT PARAMETERS                                   
                                                                                
   SOIL LOWER UPPER   SAT  EXTR  INIT   ROOT   BULK     pH    NO3    NH4    ORG 
  DEPTH LIMIT LIMIT    SW    SW    SW   DIST   DENS                          C  
   cm   cm3/cm3    cm3/cm3    cm3/cm3         g/cm3         ugN/g  ugN/g     %  
------------------------------------------------------------------------------- 
  0-  5 0.160 0.252 0.376 0.092 0.252   1.00   1.69   6.60   8.90   4.51   0.45 
  5- 15 0.160 0.252 0.376 0.092 0.252   1.00   1.69   6.60   8.90   4.51   0.45 
 15- 30 0.160 0.252 0.376 0.092 0.252   1.00   1.69   6.60   8.90   4.51   0.45 
 30- 53 0.120 0.200 0.440 0.080 0.200   0.27   1.40   7.10   5.60   5.04   0.17 
 53- 77 0.120 0.200 0.440 0.080 0.200   0.27   1.40   7.10   5.60   5.04   0.17 
 77-100 0.120 0.200 0.440 0.080 0.200   0.27   1.40   7.10   5.60   5.04   0.17 
                                                                                
TOT-100  13.2  21.6  42.1   8.4  21.6  <--cm   -  kg/ha-->  100.0   72.3  39475 
SOIL ALBEDO    : 0.09      EVAPORATION LIMIT : 6.00         MIN. FACTOR  : 1.00 
RUNOFF CURVE # :76.00      DRAINAGE RATE     : 0.60         FERT. FACTOR : 1.00 
                                                                                
 Maize      CULTIVAR :CI0002-DK234              ECOTYPE :IB0001                 
 P1     : 300.00  P2     : 0.4000  P5     :1075.00                              
 G2     : 890.00  G3     :  7.750  PHINT  : 40.000                              


*SIMULATED CROP AND SOIL STATUS AT MAIN DEVELOPMENT STAGES

 RUN NO.     7     P08/13                  

        CROP GROWTH     BIOMASS         LEAF   CROP N     STRESS      STRESS                                           
   DATE  AGE STAGE        kg/ha    LAI   NUM  kg/ha  %   H2O  Nitr Phos1 Phos2  RSTG                                   
 ------  --- ----------   -----  -----  ----  ---  ---  ----  ----  ----  ----  ----                                   
 14 JUL    0 Start Sim        0   0.00   0.0    0  0.0  0.00  0.00  0.00  0.00     7
 13 AUG    0 Sowing           0   0.00   0.0    0  0.0  0.00  0.00  0.00  0.00     8
 14 AUG    1 Germinate        0   0.00   0.0    0  0.0  0.00  0.00  0.00  0.00     9
 18 AUG    5 Emergence       25   0.00   2.2    1  4.4  0.00  0.01  0.00  0.00     1
  1 SEP   19 End Juveni     411   0.72  10.3   14  3.4  0.00  0.00  0.00  0.00     2
  6 SEP   24 Floral Ini     861   1.28  12.9   32  3.7  0.18  0.00  0.00  0.00     3
  8 OCT   56 75% Silkin    5738   2.58  26.5  115  2.0  0.36  0.00  0.00  0.00     4
 18 OCT   66 Beg Gr Fil    8160   2.58  26.5  115  1.4  0.00  0.00  0.00  0.00     5
  2 DEC  111 End Gr Fil   16933   1.37  26.5  210  1.2  0.18  0.00  0.00  0.00     6
  5 DEC  114 Maturity     16933   1.37  26.5  210  1.2  0.86  0.00  0.00  0.00    10
  5 DEC  114 Harvest      16933   1.37  26.5  210  1.2  0.00  0.00  0.00  0.00    10


*MAIN GROWTH AND DEVELOPMENT VARIABLES

@     VARIABLE                                         SIMULATED     MEASURED
      --------                                         ---------     --------
      Anthesis day (dap)                                      56          -99
      Physiological maturity day (dap)                       114          -99
      Yield at harvest maturity (kg [dm]/ha)                9180          -99
      Number at maturity (no/m2)                            2946          -99
      Unit wt at maturity (g [dm]/unit)                   0.3116          -99
      Number at maturity (no/unit)                         475.2          -99
      Tops weight at maturity (kg [dm]/ha)                 16933          -99
      By-product produced (stalk) at maturity (kg[dm]/ha    7813          -99
      Leaf area index, maximum                              2.58          -99
      Harvest index at maturity                            0.542          -99
      Grain N at maturity (kg/ha)                            161          -99
      Tops N at maturity (kg/ha)                             210          -99
      Stem N at maturity (kg/ha)                              49          -99
      Grain N at maturity (%)                                1.8          -99
      Tops weight at anthesis (kg [dm]/ha)                  5448          -99
      Tops N at anthesis (kg/ha)                             111          -99
      Leaf number per stem at maturity                     26.49          -99
      Emergence day (dap)                                      5          -99


*ENVIRONMENTAL AND STRESS FACTORS

 |-----Development Phase------|--------------------------------------Environment--------------------------------------|-----------------Stress-----------------|
                              |---------------Average--------------|-----Cumulative-----|--------Count of days--------|          (0=Min, 1=Max Stress)         |
                         Time  Temp  Temp  Temp Solar Photop                Evapo    Pot TMIN TMIN TMAX TMAX TMAX RAIN|----Water----|---Nitrogen--|-Phosphorus-|
                         Span   Max   Min  Mean   Rad  [day]    CO2   Rain  Trans     ET   <    <    >    >    >    >   Photo         Photo         Photo
                         days    邂    邂    邂 MJ/m2     hr    ppm     mm     mm     mm  0邂  2邂 30邂 32邂 34邂  0mm  synth Growth  synth Growth  synth Growth
----------------------------------------------------------------------------------------------------------------------------------------------------------------
 Emergence-End Juvenile    14  34.3  22.6  28.4  21.6  23.54  347.3   18.6   39.1   90.7    0    0   14   12    8    5  0.000  0.000  0.003  0.006  0.000  0.000
 End Juvenil-Floral Init    5  33.3  22.2  27.8  19.8  18.90  347.3   10.6   18.3   27.7    0    0    5    3    1    2  0.032  0.088  0.000  0.001  0.000  0.000
 Floral Init-End Lf Grow   32  33.8  22.6  28.2  19.0  11.72  347.4  212.3  102.1  167.8    0    0   27   22   17   16  0.289  0.370  0.000  0.000  0.000  0.000
 End Lf Grth-Beg Grn Fil   10  30.5  21.8  26.2  18.6   2.29  347.5   37.5   45.9   45.9    0    0    6    0    0    6  0.000  0.000  0.000  0.000  0.000  0.000
 Grain Filling Phase       45  31.2  22.0  26.6  18.1   0.00  347.6  124.0  175.0  203.3    0    0   31   12    2   19  0.111  0.162  0.000  0.000  0.000  0.000


 Planting to Harvest      114  32.5  22.2  27.3  18.9   8.26  347.5  424.1  386.1  575.8    0    0   91   54   29   51  0.147  0.194  0.000  0.001  0.000  0.000
----------------------------------------------------------------------------------------------------------------------------------------------------------------


*Resource Productivity
 Growing season length: 114 days 

 Precipitation during growing season       424.1 mm[rain]
   Dry Matter Productivity                  3.99 kg[DM]/m3[rain]          =   39.9 kg[DM]/ha per mm[rain]
   Yield Productivity                       2.16 kg[grain yield]/m3[rain] =   21.6 kg[yield]/ha per mm[rain]

 Evapotranspiration during growing season  386.1 mm[ET]
   Dry Matter Productivity                  4.39 kg[DM]/m3[ET]            =   43.9 kg[DM]/ha per mm[ET]
   Yield Productivity                       2.38 kg[grain yield]/m3[ET]   =   23.8 kg[yield]/ha per mm[ET]

 Transpiration during growing season       282.1 mm[EP]
   Dry Matter Productivity                  6.00 kg[DM]/m3[EP]            =   60.0 kg[DM]/ha per mm[EP]
   Yield Productivity                       3.25 kg[grain yield]/m3[EP]   =   32.5 kg[yield]/ha per mm[EP]

 N applied during growing season            162. kg[N applied]/ha
   Dry Matter Productivity                 104.5 kg[DM]/kg[N applied]
   Yield Productivity                       56.7 kg[yield]/kg[N applied]

 N uptake during growing season              227 kg[N uptake]/ha
   Dry Matter Productivity                  74.6 kg[DM]/kg[N uptake]
   Yield Productivity                       40.4 kg[yield]/kg[N uptake]

--------------------------------------------------------------------------------------------------------------

                     Maize YIELD :     9180 kg/ha    [Dry weight] 

**************************************************************************************************************

*DSSAT Cropping System Model Ver. 4.6.1.000 -release      OCT 02, 2017; 12:58:56
                                                                                
*RUN   8        : P08/18                    MZCER046 ANES1986    8              
 MODEL          : MZCER046 - Maize                                              
 EXPERIMENT     : ANES1986 MZ  Analisis a침os de bajo rendimiento Espinal       
 DATA PATH      : C:\DSSAT46\maize\                                             
 TREATMENT  8   : P08/18                    MZCER046                            
                                                                                
                                                                                
 CROP           : Maize            CULTIVAR : DK234            ECOTYPE :IB0001  
 STARTING DATE  : JUL 19 1986                                                   
 PLANTING DATE  : AUG 18 1986        PLANTS/m2 :  6.2     ROW SPACING :  80.cm  
 WEATHER        : CNAT   1986                                                   
 SOIL           : CCESPI2017     TEXTURE : SL    -   Suelo Espinal Calibraci    
 SOIL INITIAL C : DEPTH:100cm EXTR. H2O: 83.6mm  NO3:100.0kg/ha  NH4: 72.3kg/ha 
 WATER BALANCE  : RAINFED                                                       
 IRRIGATION     : NOT IRRIGATED                                                 
 NITROGEN BAL.  : SOIL-N & N-UPTAKE SIMULATION; NO N-FIXATION                   
 N-FERTILIZER   :      162 kg/ha IN     6 APPLICATIONS                          
 RESIDUE/MANURE : INITIAL :     0 kg/ha ;       0 kg/ha IN     0 APPLICATIONS   
 ENVIRONM. OPT. : DAYL=    0.00  SRAD=    0.00  TMAX=    0.00  TMIN=    0.00    
                  RAIN=    0.00  CO2 =    0.00  DEW =    0.00  WIND=    0.00    
 SIMULATION OPT : WATER   :Y  NITROGEN:Y  N-FIX:N  PHOSPH :N  PESTS  :N         
                  PHOTO   :C  ET      :R  INFIL:S  HYDROL :R  SOM    :G         
                  CO2 347ppm  NSWIT   :1  EVAP :S  SOIL   :2  STEMP  :D         
 MANAGEMENT OPT : PLANTING:R  IRRIG   :N  FERT :D  RESIDUE:R  HARVEST:M         
                  WEATHER :M  TILLAGE :N                                        
                                                                                
*SUMMARY OF SOIL AND GENETIC INPUT PARAMETERS                                   
                                                                                
   SOIL LOWER UPPER   SAT  EXTR  INIT   ROOT   BULK     pH    NO3    NH4    ORG 
  DEPTH LIMIT LIMIT    SW    SW    SW   DIST   DENS                          C  
   cm   cm3/cm3    cm3/cm3    cm3/cm3         g/cm3         ugN/g  ugN/g     %  
------------------------------------------------------------------------------- 
  0-  5 0.160 0.252 0.376 0.092 0.252   1.00   1.69   6.60   8.90   4.51   0.45 
  5- 15 0.160 0.252 0.376 0.092 0.252   1.00   1.69   6.60   8.90   4.51   0.45 
 15- 30 0.160 0.252 0.376 0.092 0.252   1.00   1.69   6.60   8.90   4.51   0.45 
 30- 53 0.120 0.200 0.440 0.080 0.200   0.27   1.40   7.10   5.60   5.04   0.17 
 53- 77 0.120 0.200 0.440 0.080 0.200   0.27   1.40   7.10   5.60   5.04   0.17 
 77-100 0.120 0.200 0.440 0.080 0.200   0.27   1.40   7.10   5.60   5.04   0.17 
                                                                                
TOT-100  13.2  21.6  42.1   8.4  21.6  <--cm   -  kg/ha-->  100.0   72.3  39475 
SOIL ALBEDO    : 0.09      EVAPORATION LIMIT : 6.00         MIN. FACTOR  : 1.00 
RUNOFF CURVE # :76.00      DRAINAGE RATE     : 0.60         FERT. FACTOR : 1.00 
                                                                                
 Maize      CULTIVAR :CI0002-DK234              ECOTYPE :IB0001                 
 P1     : 300.00  P2     : 0.4000  P5     :1075.00                              
 G2     : 890.00  G3     :  7.750  PHINT  : 40.000                              


*SIMULATED CROP AND SOIL STATUS AT MAIN DEVELOPMENT STAGES

 RUN NO.     8     P08/18                  

        CROP GROWTH     BIOMASS         LEAF   CROP N     STRESS      STRESS                                           
   DATE  AGE STAGE        kg/ha    LAI   NUM  kg/ha  %   H2O  Nitr Phos1 Phos2  RSTG                                   
 ------  --- ----------   -----  -----  ----  ---  ---  ----  ----  ----  ----  ----                                   
 19 JUL    0 Start Sim        0   0.00   0.0    0  0.0  0.00  0.00  0.00  0.00     7
 18 AUG    0 Sowing           0   0.00   0.0    0  0.0  0.00  0.00  0.00  0.00     8
 19 AUG    1 Germinate        0   0.00   0.0    0  0.0  0.00  0.00  0.00  0.00     9
 23 AUG    5 Emergence       25   0.01   2.3    1  4.4  0.00  0.01  0.00  0.00     1
  6 SEP   19 End Juveni     403   0.70  10.5   14  3.5  0.02  0.00  0.00  0.00     2
 10 SEP   23 Floral Ini     673   1.04  12.6   26  3.8  0.43  0.00  0.00  0.00     3
 12 OCT   55 75% Silkin    6080   2.81  25.9  124  2.0  0.27  0.00  0.00  0.00     4
 22 OCT   65 Beg Gr Fil    8515   2.81  25.9  125  1.5  0.00  0.00  0.00  0.00     5
  6 DEC  110 End Gr Fil   16505   1.34  25.9  205  1.2  0.27  0.00  0.00  0.00     6
  9 DEC  113 Maturity     16505   1.34  25.9  205  1.2  0.41  0.00  0.00  0.00    10
  9 DEC  113 Harvest      16505   1.34  25.9  205  1.2  0.00  0.00  0.00  0.00    10


*MAIN GROWTH AND DEVELOPMENT VARIABLES

@     VARIABLE                                         SIMULATED     MEASURED
      --------                                         ---------     --------
      Anthesis day (dap)                                      55          -99
      Physiological maturity day (dap)                       113          -99
      Yield at harvest maturity (kg [dm]/ha)                8618          -99
      Number at maturity (no/m2)                            2928          -99
[...]
 WATER BALANCE  : RAINFED                                                       
 IRRIGATION     : NOT IRRIGATED                                                 
 NITROGEN BAL.  : SOIL-N & N-UPTAKE SIMULATION; NO N-FIXATION                   
 N-FERTILIZER   :      162 kg/ha IN     6 APPLICATIONS                          
 RESIDUE/MANURE : INITIAL :     0 kg/ha ;       0 kg/ha IN     0 APPLICATIONS   
 ENVIRONM. OPT. : DAYL=    0.00  SRAD=    0.00  TMAX=    0.00  TMIN=    0.00    
                  RAIN=    0.00  CO2 =    0.00  DEW =    0.00  WIND=    0.00    
 SIMULATION OPT : WATER   :Y  NITROGEN:Y  N-FIX:N  PHOSPH :N  PESTS  :N         
                  PHOTO   :C  ET      :R  INFIL:S  HYDROL :R  SOM    :G         
                  CO2 348ppm  NSWIT   :1  EVAP :S  SOIL   :2  STEMP  :D         
 MANAGEMENT OPT : PLANTING:R  IRRIG   :N  FERT :D  RESIDUE:R  HARVEST:M         
                  WEATHER :M  TILLAGE :N                                        
                                                                                
*SUMMARY OF SOIL AND GENETIC INPUT PARAMETERS                                   
                                                                                
   SOIL LOWER UPPER   SAT  EXTR  INIT   ROOT   BULK     pH    NO3    NH4    ORG 
  DEPTH LIMIT LIMIT    SW    SW    SW   DIST   DENS                          C  
   cm   cm3/cm3    cm3/cm3    cm3/cm3         g/cm3         ugN/g  ugN/g     %  
------------------------------------------------------------------------------- 
  0-  5 0.160 0.252 0.376 0.092 0.252   1.00   1.69   6.60   8.90   4.51   0.45 
  5- 15 0.160 0.252 0.376 0.092 0.252   1.00   1.69   6.60   8.90   4.51   0.45 
 15- 30 0.160 0.252 0.376 0.092 0.252   1.00   1.69   6.60   8.90   4.51   0.45 
 30- 53 0.120 0.200 0.440 0.080 0.200   0.27   1.40   7.10   5.60   5.04   0.17 
 53- 77 0.120 0.200 0.440 0.080 0.200   0.27   1.40   7.10   5.60   5.04   0.17 
 77-100 0.120 0.200 0.440 0.080 0.200   0.27   1.40   7.10   5.60   5.04   0.17 
                                                                                
TOT-100  13.2  21.6  42.1   8.4  21.6  <--cm   -  kg/ha-->  100.0   72.3  39475 
SOIL ALBEDO    : 0.09      EVAPORATION LIMIT : 6.00         MIN. FACTOR  : 1.00 
RUNOFF CURVE # :76.00      DRAINAGE RATE     : 0.60         FERT. FACTOR : 1.00 
                                                                                
 Maize      CULTIVAR :CI0002-DK234              ECOTYPE :IB0001                 
 P1     : 300.00  P2     : 0.4000  P5     :1075.00                              
 G2     : 890.00  G3     :  7.750  PHINT  : 40.000                              


*SIMULATED CROP AND SOIL STATUS AT MAIN DEVELOPMENT STAGES

 RUN NO.    31     P11/26                  

        CROP GROWTH     BIOMASS         LEAF   CROP N     STRESS      STRESS                                           
   DATE  AGE STAGE        kg/ha    LAI   NUM  kg/ha  %   H2O  Nitr Phos1 Phos2  RSTG                                   
 ------  --- ----------   -----  -----  ----  ---  ---  ----  ----  ----  ----  ----                                   
 26 NOV    0 Start Sim        0   0.00   0.0    0  0.0  0.00  0.00  0.00  0.00     7
 26 DEC    0 Sowing           0   0.00   0.0    0  0.0  0.00  0.00  0.00  0.00     8
 27 DEC    1 Germinate        0   0.00   0.0    0  0.0  0.00  0.00  0.00  0.00     9
 31 DEC    5 Emergence       25   0.00   2.3    1  4.4  0.00  0.01  0.00  0.00     1
 15 JAN   20 End Juveni     413   0.72  10.6   14  3.5  0.03  0.00  0.00  0.00     2
 19 JAN   24 Floral Ini     757   1.17  12.7   28  3.7  0.25  0.00  0.00  0.00     3
 18 FEB   54 75% Silkin    3246   1.38  26.2   68  2.1  0.60  0.00  0.00  0.00     4
 26 FEB   62 Beg Gr Fil    4645   1.28  26.2   70  1.5  0.30  0.00  0.00  0.00     5
  9 APR  104 End Gr Fil    8982   0.71  26.2  116  1.3  0.35  0.00  0.00  0.00     6
 12 APR  107 Maturity      8982   0.71  26.2  116  1.3  0.00  0.00  0.00  0.00    10
 12 APR  107 Harvest       8982   0.71  26.2  116  1.3  0.00  0.00  0.00  0.00    10


*MAIN GROWTH AND DEVELOPMENT VARIABLES

@     VARIABLE                                         SIMULATED     MEASURED
      --------                                         ---------     --------
      Anthesis day (dap)                                      54          -99
      Physiological maturity day (dap)                       107          -99
      Yield at harvest maturity (kg [dm]/ha)                4785          -99
      Number at maturity (no/m2)                            2271          -99
      Unit wt at maturity (g [dm]/unit)                   0.2107          -99
      Number at maturity (no/unit)                         366.3          -99
      Tops weight at maturity (kg [dm]/ha)                  8982          -99
      By-product produced (stalk) at maturity (kg[dm]/ha    4240          -99
      Leaf area index, maximum                              1.57          -99
      Harvest index at maturity                            0.533          -99
      Grain N at maturity (kg/ha)                             86          -99
      Tops N at maturity (kg/ha)                             116          -99
      Stem N at maturity (kg/ha)                              30          -99
      Grain N at maturity (%)                                1.8          -99
      Tops weight at anthesis (kg [dm]/ha)                  3085          -99
      Tops N at anthesis (kg/ha)                              66          -99
      Leaf number per stem at maturity                     26.23          -99
      Emergence day (dap)                                      5          -99


*ENVIRONMENTAL AND STRESS FACTORS

 |-----Development Phase------|--------------------------------------Environment--------------------------------------|-----------------Stress-----------------|
                              |---------------Average--------------|-----Cumulative-----|--------Count of days--------|          (0=Min, 1=Max Stress)         |
                         Time  Temp  Temp  Temp Solar Photop                Evapo    Pot TMIN TMIN TMAX TMAX TMAX RAIN|----Water----|---Nitrogen--|-Phosphorus-|
                         Span   Max   Min  Mean   Rad  [day]    CO2   Rain  Trans     ET   <    <    >    >    >    >   Photo         Photo         Photo
                         days    邂    邂    邂 MJ/m2     hr    ppm     mm     mm     mm  0邂  2邂 30邂 32邂 34邂  0mm  synth Growth  synth Growth  synth Growth
----------------------------------------------------------------------------------------------------------------------------------------------------------------
 Emergence-End Juvenile    15  32.6  23.0  27.8  19.6   0.00  347.8   36.2   35.7   84.5    0    0   14   10    2    3  0.000  0.010  0.002  0.006  0.000  0.000
 End Juvenil-Floral Init    4  36.0  22.3  29.1  22.5   0.00  348.0    0.0   11.9   26.0    0    0    4    4    4    0  0.005  0.288  0.001  0.003  0.000  0.000
 Floral Init-End Lf Grow   30  34.4  23.7  29.0  18.4   0.00  348.0   83.5   57.8  152.5    0    0   28   26   17    7  0.494  0.600  0.000  0.000  0.000  0.000
 End Lf Grth-Beg Grn Fil    8  34.8  24.0  29.4  21.4   0.00  348.1    3.3   32.3   47.6    0    0    8    8    5    2  0.099  0.202  0.000  0.000  0.000  0.000
 Grain Filling Phase       42  33.8  23.8  28.8  19.7  10.34  348.2  194.9  132.9  232.6    0    0   38   32   20   11  0.294  0.364  0.000  0.000  0.000  0.000


 Planting to Harvest      107  33.8  23.5  28.7  19.5   4.60  348.1  323.2  287.4  585.5    0    0   98   84   48   24  0.261  0.338  0.000  0.001  0.000  0.000
----------------------------------------------------------------------------------------------------------------------------------------------------------------


*Resource Productivity
 Growing season length: 107 days 

 Precipitation during growing season       323.2 mm[rain]
   Dry Matter Productivity                  2.78 kg[DM]/m3[rain]          =   27.8 kg[DM]/ha per mm[rain]
   Yield Productivity                       1.48 kg[grain yield]/m3[rain] =   14.8 kg[yield]/ha per mm[rain]

 Evapotranspiration during growing season  287.4 mm[ET]
   Dry Matter Productivity                  3.13 kg[DM]/m3[ET]            =   31.3 kg[DM]/ha per mm[ET]
   Yield Productivity                       1.67 kg[grain yield]/m3[ET]   =   16.7 kg[yield]/ha per mm[ET]

 Transpiration during growing season       173.8 mm[EP]
   Dry Matter Productivity                  5.17 kg[DM]/m3[EP]            =   51.7 kg[DM]/ha per mm[EP]
   Yield Productivity                       2.75 kg[grain yield]/m3[EP]   =   27.5 kg[yield]/ha per mm[EP]

 N applied during growing season            162. kg[N applied]/ha
   Dry Matter Productivity                  55.4 kg[DM]/kg[N applied]
   Yield Productivity                       29.5 kg[yield]/kg[N applied]

 N uptake during growing season              125 kg[N uptake]/ha
   Dry Matter Productivity                  71.9 kg[DM]/kg[N uptake]
   Yield Productivity                       38.3 kg[yield]/kg[N uptake]

--------------------------------------------------------------------------------------------------------------

                     Maize YIELD :     4785 kg/ha    [Dry weight] 

**************************************************************************************************************

*DSSAT Cropping System Model Ver. 4.6.1.000 -release      OCT 02, 2017; 12:59:00
                                                                                
*RUN  32        : P12/31                    MZCER046 ANES1986   32              
 MODEL          : MZCER046 - Maize                                              
 EXPERIMENT     : ANES1986 MZ  Analisis a침os de bajo rendimiento Espinal       
 DATA PATH      : C:\DSSAT46\maize\                                             
 TREATMENT 32   : P12/31                    MZCER046                            
                                                                                
                                                                                
 CROP           : Maize            CULTIVAR : DK234            ECOTYPE :IB0001  
 STARTING DATE  : DEC  1 1986                                                   
 PLANTING DATE  : DEC 31 1986        PLANTS/m2 :  6.2     ROW SPACING :  80.cm  
 WEATHER        : CNAT   1986                                                   
 SOIL           : CCESPI2017     TEXTURE : SL    -   Suelo Espinal Calibraci    
 SOIL INITIAL C : DEPTH:100cm EXTR. H2O: 83.6mm  NO3:100.0kg/ha  NH4: 72.3kg/ha 
 WATER BALANCE  : RAINFED                                                       
 IRRIGATION     : NOT IRRIGATED                                                 
 NITROGEN BAL.  : SOIL-N & N-UPTAKE SIMULATION; NO N-FIXATION                   
 N-FERTILIZER   :      162 kg/ha IN     6 APPLICATIONS                          
 RESIDUE/MANURE : INITIAL :     0 kg/ha ;       0 kg/ha IN     0 APPLICATIONS   
 ENVIRONM. OPT. : DAYL=    0.00  SRAD=    0.00  TMAX=    0.00  TMIN=    0.00    
                  RAIN=    0.00  CO2 =    0.00  DEW =    0.00  WIND=    0.00    
 SIMULATION OPT : WATER   :Y  NITROGEN:Y  N-FIX:N  PHOSPH :N  PESTS  :N         
                  PHOTO   :C  ET      :R  INFIL:S  HYDROL :R  SOM    :G         
                  CO2 348ppm  NSWIT   :1  EVAP :S  SOIL   :2  STEMP  :D         
 MANAGEMENT OPT : PLANTING:R  IRRIG   :N  FERT :D  RESIDUE:R  HARVEST:M         
                  WEATHER :M  TILLAGE :N                                        
                                                                                
*SUMMARY OF SOIL AND GENETIC INPUT PARAMETERS                                   
                                                                                
   SOIL LOWER UPPER   SAT  EXTR  INIT   ROOT   BULK     pH    NO3    NH4    ORG 
  DEPTH LIMIT LIMIT    SW    SW    SW   DIST   DENS                          C  
   cm   cm3/cm3    cm3/cm3    cm3/cm3         g/cm3         ugN/g  ugN/g     %  
------------------------------------------------------------------------------- 
  0-  5 0.160 0.252 0.376 0.092 0.252   1.00   1.69   6.60   8.90   4.51   0.45 
  5- 15 0.160 0.252 0.376 0.092 0.252   1.00   1.69   6.60   8.90   4.51   0.45 
 15- 30 0.160 0.252 0.376 0.092 0.252   1.00   1.69   6.60   8.90   4.51   0.45 
 30- 53 0.120 0.200 0.440 0.080 0.200   0.27   1.40   7.10   5.60   5.04   0.17 
 53- 77 0.120 0.200 0.440 0.080 0.200   0.27   1.40   7.10   5.60   5.04   0.17 
 77-100 0.120 0.200 0.440 0.080 0.200   0.27   1.40   7.10   5.60   5.04   0.17 
                                                                                
TOT-100  13.2  21.6  42.1   8.4  21.6  <--cm   -  kg/ha-->  100.0   72.3  39475 
SOIL ALBEDO    : 0.09      EVAPORATION LIMIT : 6.00         MIN. FACTOR  : 1.00 
RUNOFF CURVE # :76.00      DRAINAGE RATE     : 0.60         FERT. FACTOR : 1.00 
                                                                                
 Maize      CULTIVAR :CI0002-DK234              ECOTYPE :IB0001                 
 P1     : 300.00  P2     : 0.4000  P5     :1075.00                              
 G2     : 890.00  G3     :  7.750  PHINT  : 40.000                              


*SIMULATED CROP AND SOIL STATUS AT MAIN DEVELOPMENT STAGES

 RUN NO.    32     P12/31                  

        CROP GROWTH     BIOMASS         LEAF   CROP N     STRESS      STRESS                                           
   DATE  AGE STAGE        kg/ha    LAI   NUM  kg/ha  %   H2O  Nitr Phos1 Phos2  RSTG                                   
 ------  --- ----------   -----  -----  ----  ---  ---  ----  ----  ----  ----  ----                                   
  1 DEC    0 Start Sim        0   0.00   0.0    0  0.0  0.00  0.00  0.00  0.00     7
 31 DEC    0 Sowing           0   0.00   0.0    0  0.0  0.00  0.00  0.00  0.00     8
  1 JAN    1 Germinate        0   0.00   0.0    0  0.0  0.00  0.00  0.00  0.00     9
  5 JAN    5 Emergence       25   0.00   2.2    1  4.4  0.00  0.01  0.00  0.00     1
 19 JAN   19 End Juveni     379   0.67  10.2   13  3.4  0.02  0.00  0.00  0.00     2
 23 JAN   23 Floral Ini     692   1.09  12.3   25  3.7  0.25  0.00  0.00  0.00     3
 22 FEB   53 75% Silkin    4318   1.82  25.4   84  2.0  0.49  0.00  0.00  0.00     4
  1 MAR   60 Beg Gr Fil    4947   1.51  25.4   86  1.7  0.69  0.00  0.00  0.00     5
 12 APR  102 End Gr Fil    8655   0.88  25.4  108  1.3  0.32  0.00  0.00  0.00     6
 15 APR  105 Maturity      8655   0.88  25.4  108  1.3  0.00  0.00  0.00  0.00    10
 15 APR  105 Harvest       8655   0.88  25.4  108  1.3  0.00  0.00  0.00  0.00    10


*MAIN GROWTH AND DEVELOPMENT VARIABLES

@     VARIABLE                                         SIMULATED     MEASURED
      --------                                         ---------     --------
      Anthesis day (dap)                                      53          -99
      Physiological maturity day (dap)                       105          -99
      Yield at harvest maturity (kg [dm]/ha)                3790          -99
      Number at maturity (no/m2)                            1710          -99
      Unit wt at maturity (g [dm]/unit)                   0.2216          -99
      Number at maturity (no/unit)                         275.8          -99
      Tops weight at maturity (kg [dm]/ha)                  8655          -99
      By-product produced (stalk) at maturity (kg[dm]/ha    4910          -99
      Leaf area index, maximum                              1.82          -99
      Harvest index at maturity                            0.438          -99
      Grain N at maturity (kg/ha)                             68          -99
      Tops N at maturity (kg/ha)                             108          -99
      Stem N at maturity (kg/ha)                              40          -99
      Grain N at maturity (%)                                1.8          -99
      Tops weight at anthesis (kg [dm]/ha)                  4042          -99
      Tops N at anthesis (kg/ha)                              83          -99
      Leaf number per stem at maturity                     25.37          -99
      Emergence day (dap)                                      5          -99


*ENVIRONMENTAL AND STRESS FACTORS

 |-----Development Phase------|--------------------------------------Environment--------------------------------------|-----------------Stress-----------------|
                              |---------------Average--------------|-----Cumulative-----|--------Count of days--------|          (0=Min, 1=Max Stress)         |
                         Time  Temp  Temp  Temp Solar Photop                Evapo    Pot TMIN TMIN TMAX TMAX TMAX RAIN|----Water----|---Nitrogen--|-Phosphorus-|
                         Span   Max   Min  Mean   Rad  [day]    CO2   Rain  Trans     ET   <    <    >    >    >    >   Photo         Photo         Photo
                         days    邂    邂    邂 MJ/m2     hr    ppm     mm     mm     mm  0邂  2邂 30邂 32邂 34邂  0mm  synth Growth  synth Growth  synth Growth
----------------------------------------------------------------------------------------------------------------------------------------------------------------
 Emergence-End Juvenile    14  33.7  22.8  28.2  20.6   0.00  347.9    0.0   16.1   84.2    0    0   14   11    6    0  0.000  0.023  0.002  0.006  0.000  0.000
 End Juvenil-Floral Init    4  33.5  23.7  28.6  15.1   0.00  348.0    2.3    7.7   16.6    0    0    4    4    2    2  0.011  0.179  0.000  0.001  0.000  0.000
 Floral Init-End Lf Grow   30  34.5  23.7  29.1  19.3   0.00  348.0   84.2   76.1  160.3    0    0   28   26   17    6  0.386  0.492  0.000  0.000  0.000  0.000
 End Lf Grth-Beg Grn Fil    7  35.9  23.9  29.9  21.6   0.25  348.1    0.3   21.0   43.3    0    0    7    7    6    1  0.437  0.621  0.000  0.000  0.000  0.000
 Grain Filling Phase       42  33.4  23.7  28.6  19.3  11.68  348.2  194.9  138.4  222.6    0    0   37   30   17   11  0.268  0.336  0.000  0.000  0.000  0.000


 Planting to Harvest      105  33.9  23.6  28.7  19.6   5.31  348.1  317.9  290.7  575.0    0    0   97   84   50   23  0.247  0.326  0.000  0.001  0.000  0.000
----------------------------------------------------------------------------------------------------------------------------------------------------------------


*Resource Productivity
 Growing season length: 105 days 

 Precipitation during growing season       317.9 mm[rain]
   Dry Matter Productivity                  2.72 kg[DM]/m3[rain]          =   27.2 kg[DM]/ha per mm[rain]
   Yield Productivity                       1.19 kg[grain yield]/m3[rain] =   11.9 kg[yield]/ha per mm[rain]

 Evapotranspiration during growing season  290.7 mm[ET]
   Dry Matter Productivity                  2.98 kg[DM]/m3[ET]            =   29.8 kg[DM]/ha per mm[ET]
   Yield Productivity                       1.30 kg[grain yield]/m3[ET]   =   13.0 kg[yield]/ha per mm[ET]

 Transpiration during growing season       191.0 mm[EP]
   Dry Matter Productivity                  4.53 kg[DM]/m3[EP]            =   45.3 kg[DM]/ha per mm[EP]
   Yield Productivity                       1.98 kg[grain yield]/m3[EP]   =   19.8 kg[yield]/ha per mm[EP]

 N applied during growing season            162. kg[N applied]/ha
   Dry Matter Productivity                  53.4 kg[DM]/kg[N applied]
   Yield Productivity                       23.4 kg[yield]/kg[N applied]

 N uptake during growing season              120 kg[N uptake]/ha
   Dry Matter Productivity                  72.1 kg[DM]/kg[N uptake]
   Yield Productivity                       31.6 kg[yield]/kg[N uptake]

--------------------------------------------------------------------------------------------------------------

                     Maize YIELD :     3790 kg/ha    [Dry weight] 

**************************************************************************************************************
