*SIMULATION OVERVIEW FILE

*DSSAT Cropping System Model Ver. 4.6.1.000 -release      OCT 02, 2017; 13:17:29
                                                                                
*RUN   1        : P04/02                    MZCER046 ANBU1982    1              
 MODEL          : MZCER046 - Maize                                              
 EXPERIMENT     : ANBU1982 MZ  Analisis a침os de bajo rendimiento Buga          
 DATA PATH      : C:\DSSAT46\maize\                                             
 TREATMENT  1   : P04/02                    MZCER046                            
                                                                                
                                                                                
 CROP           : Maize            CULTIVAR : FNC3056          ECOTYPE :IB0001  
 STARTING DATE  : MAR  3 1982                                                   
 PLANTING DATE  : APR  2 1982        PLANTS/m2 :  6.2     ROW SPACING :  80.cm  
 WEATHER        : CUNI   1982                                                   
 SOIL           : CCBUGA2017     TEXTURE : CL    -   Suelo Buga MADR Fase I     
 SOIL INITIAL C : DEPTH: 90cm EXTR. H2O: 83.9mm  NO3:151.4kg/ha  NH4: 62.4kg/ha 
 WATER BALANCE  : RAINFED                                                       
 IRRIGATION     : NOT IRRIGATED                                                 
 NITROGEN BAL.  : SOIL-N & N-UPTAKE SIMULATION; NO N-FIXATION                   
 N-FERTILIZER   :      161 kg/ha IN     5 APPLICATIONS                          
 RESIDUE/MANURE : INITIAL :     0 kg/ha ;       0 kg/ha IN     0 APPLICATIONS   
 ENVIRONM. OPT. : DAYL=    0.00  SRAD=    0.00  TMAX=    0.00  TMIN=    0.00    
                  RAIN=    0.00  CO2 =    0.00  DEW =    0.00  WIND=    0.00    
 SIMULATION OPT : WATER   :Y  NITROGEN:Y  N-FIX:N  PHOSPH :N  PESTS  :N         
                  PHOTO   :C  ET      :R  INFIL:S  HYDROL :R  SOM    :G         
                  CO2 341ppm  NSWIT   :1  EVAP :S  SOIL   :2  STEMP  :D         
 MANAGEMENT OPT : PLANTING:R  IRRIG   :N  FERT :D  RESIDUE:R  HARVEST:M         
                  WEATHER :M  TILLAGE :N                                        
                                                                                
*SUMMARY OF SOIL AND GENETIC INPUT PARAMETERS                                   
                                                                                
   SOIL LOWER UPPER   SAT  EXTR  INIT   ROOT   BULK     pH    NO3    NH4    ORG 
  DEPTH LIMIT LIMIT    SW    SW    SW   DIST   DENS                          C  
   cm   cm3/cm3    cm3/cm3    cm3/cm3         g/cm3         ugN/g  ugN/g     %  
------------------------------------------------------------------------------- 
  0-  5 0.215 0.331 0.341 0.116 0.319   1.00   1.68   6.70  11.90   4.21   0.75 
  5- 15 0.215 0.331 0.341 0.116 0.319   1.00   1.68   6.70  11.90   4.21   0.75 
 15- 25 0.215 0.331 0.341 0.116 0.319   1.00   1.68   6.70  11.90   4.21   0.75 
 25- 35 0.181 0.291 0.364 0.110 0.331   0.50   1.61   7.20  12.15   4.32   0.53 
 35- 45 0.181 0.291 0.364 0.110 0.344   0.50   1.61   7.20  12.40   4.44   0.53 
 45- 67 0.096 0.169 0.404 0.073 0.290   0.27   1.51   7.00  10.67   4.47   0.05 
 67- 90 0.096 0.169 0.404 0.073 0.195   0.27   1.51   7.00   7.63   4.53   0.05 
                                                                                
TOT- 90  13.3  21.7  34.0   8.4  25.6  <--cm   -  kg/ha-->  151.4   62.4  51964 
SOIL ALBEDO    : 0.09      EVAPORATION LIMIT : 6.00         MIN. FACTOR  : 1.00 
RUNOFF CURVE # :76.00      DRAINAGE RATE     : 0.60         FERT. FACTOR : 1.00 
                                                                                
 Maize      CULTIVAR :CI0003-FNC3056            ECOTYPE :IB0001                 
 P1     : 233.00  P2     : 0.5000  P5     : 976.00                              
 G2     : 956.00  G3     :  7.500  PHINT  : 45.600                              


*SIMULATED CROP AND SOIL STATUS AT MAIN DEVELOPMENT STAGES

 RUN NO.     1     P04/02                  

        CROP GROWTH     BIOMASS         LEAF   CROP N     STRESS      STRESS                                           
   DATE  AGE STAGE        kg/ha    LAI   NUM  kg/ha  %   H2O  Nitr Phos1 Phos2  RSTG                                   
 ------  --- ----------   -----  -----  ----  ---  ---  ----  ----  ----  ----  ----                                   
  3 MAR    0 Start Sim        0   0.00   0.0    0  0.0  0.00  0.00  0.00  0.00     7
  2 APR    0 Sowing           0   0.00   0.0    0  0.0  0.00  0.00  0.00  0.00     8
  3 APR    1 Germinate        0   0.00   0.0    0  0.0  0.00  0.00  0.00  0.00     9
  8 APR    6 Emergence       25   0.00   2.1    1  4.4  0.00  0.01  0.00  0.00     1
 22 APR   20 End Juveni      88   0.19   7.9    3  3.4  0.00  0.00  0.00  0.00     2
 30 APR   28 Floral Ini     376   0.66  10.9   14  3.6  0.00  0.00  0.00  0.00     3
  8 JUN   67 75% Silkin    5800   3.20  22.6  114  2.0  0.00  0.00  0.00  0.00     4
 18 JUN   77 Beg Gr Fil    8192   3.03  22.6  115  1.4  0.00  0.00  0.00  0.00     5
  2 AUG  122 End Gr Fil   12742   0.78  22.6  159  1.2  0.66  0.00  0.00  0.00     6
  4 AUG  124 Maturity     12742   0.78  22.6  159  1.2  0.98  0.00  0.00  0.00    10
  4 AUG  124 Harvest      12742   0.78  22.6  159  1.2  0.00  0.00  0.00  0.00    10


*MAIN GROWTH AND DEVELOPMENT VARIABLES

@     VARIABLE                                         SIMULATED     MEASURED
      --------                                         ---------     --------
      Anthesis day (dap)                                      67          -99
      Physiological maturity day (dap)                       124          -99
      Yield at harvest maturity (kg [dm]/ha)                6129          -99
      Number at maturity (no/m2)                            3065          -99
      Unit wt at maturity (g [dm]/unit)                   0.2000          -99
      Number at maturity (no/unit)                         494.3          -99
      Tops weight at maturity (kg [dm]/ha)                 12742          -99
      By-product produced (stalk) at maturity (kg[dm]/ha    6668          -99
      Leaf area index, maximum                              3.36          -99
      Harvest index at maturity                            0.481          -99
      Grain N at maturity (kg/ha)                            110          -99
      Tops N at maturity (kg/ha)                             159          -99
      Stem N at maturity (kg/ha)                              49          -99
      Grain N at maturity (%)                                1.8          -99
      Tops weight at anthesis (kg [dm]/ha)                  5565          -99
      Tops N at anthesis (kg/ha)                             111          -99
      Leaf number per stem at maturity                     22.61          -99
      Emergence day (dap)                                      6          -99


*ENVIRONMENTAL AND STRESS FACTORS

 |-----Development Phase------|--------------------------------------Environment--------------------------------------|-----------------Stress-----------------|
                              |---------------Average--------------|-----Cumulative-----|--------Count of days--------|          (0=Min, 1=Max Stress)         |
                         Time  Temp  Temp  Temp Solar Photop                Evapo    Pot TMIN TMIN TMAX TMAX TMAX RAIN|----Water----|---Nitrogen--|-Phosphorus-|
                         Span   Max   Min  Mean   Rad  [day]    CO2   Rain  Trans     ET   <    <    >    >    >    >   Photo         Photo         Photo
                         days    邂    邂    邂 MJ/m2     hr    ppm     mm     mm     mm  0邂  2邂 30邂 32邂 34邂  0mm  synth Growth  synth Growth  synth Growth
----------------------------------------------------------------------------------------------------------------------------------------------------------------
 Emergence-End Juvenile    14  29.7  19.5  24.6  14.4  22.15  340.8   48.5   39.9   56.1    0    0    8    0    0    9  0.000  0.000  0.002  0.005  0.000  0.000
 End Juvenil-Floral Init    8  30.0  19.6  24.8  13.9  24.00  340.9    9.3   15.7   30.2    0    0    5    1    0    5  0.000  0.000  0.001  0.002  0.000  0.000
 Floral Init-End Lf Grow   39  29.6  19.6  24.6  14.4  24.00  340.9  232.3  135.7  137.2    0    0   13    0    0   23  0.000  0.000  0.000  0.000  0.000  0.000
 End Lf Grth-Beg Grn Fil   10  30.5  19.2  24.8  16.9  24.00  341.0   21.0   40.2   40.3    0    0    6    0    0    4  0.000  0.000  0.000  0.000  0.000  0.000
 Grain Filling Phase       45  31.6  18.3  24.9  18.1  24.00  341.1   45.7   90.3  200.9    0    0   38   15    2   10  0.581  0.643  0.000  0.000  0.000  0.000


 Planting to Harvest      124  30.5  19.1  24.8  15.9  23.44  341.0  391.1  343.7  496.9    0    0   73   18    3   56  0.227  0.249  0.000  0.001  0.000  0.000
----------------------------------------------------------------------------------------------------------------------------------------------------------------


*Resource Productivity
 Growing season length: 124 days 

 Precipitation during growing season       391.1 mm[rain]
   Dry Matter Productivity                  3.26 kg[DM]/m3[rain]          =   32.6 kg[DM]/ha per mm[rain]
   Yield Productivity                       1.57 kg[grain yield]/m3[rain] =   15.7 kg[yield]/ha per mm[rain]

 Evapotranspiration during growing season  343.7 mm[ET]
   Dry Matter Productivity                  3.71 kg[DM]/m3[ET]            =   37.1 kg[DM]/ha per mm[ET]
   Yield Productivity                       1.78 kg[grain yield]/m3[ET]   =   17.8 kg[yield]/ha per mm[ET]

 Transpiration during growing season       203.1 mm[EP]
   Dry Matter Productivity                  6.27 kg[DM]/m3[EP]            =   62.7 kg[DM]/ha per mm[EP]
   Yield Productivity                       3.02 kg[grain yield]/m3[EP]   =   30.2 kg[yield]/ha per mm[EP]

 N applied during growing season            161. kg[N applied]/ha
   Dry Matter Productivity                  79.1 kg[DM]/kg[N applied]
   Yield Productivity                       38.1 kg[yield]/kg[N applied]

 N uptake during growing season              176 kg[N uptake]/ha
   Dry Matter Productivity                  72.4 kg[DM]/kg[N uptake]
   Yield Productivity                       34.8 kg[yield]/kg[N uptake]

--------------------------------------------------------------------------------------------------------------

                     Maize YIELD :     6129 kg/ha    [Dry weight] 

**************************************************************************************************************

*DSSAT Cropping System Model Ver. 4.6.1.000 -release      OCT 02, 2017; 13:17:30
                                                                                
*RUN   2        : P04/07                    MZCER046 ANBU1982    2              
 MODEL          : MZCER046 - Maize                                              
 EXPERIMENT     : ANBU1982 MZ  Analisis a침os de bajo rendimiento Buga          
 DATA PATH      : C:\DSSAT46\maize\                                             
 TREATMENT  2   : P04/07                    MZCER046                            
                                                                                
                                                                                
 CROP           : Maize            CULTIVAR : FNC3056          ECOTYPE :IB0001  
 STARTING DATE  : MAR  8 1982                                                   
 PLANTING DATE  : APR  7 1982        PLANTS/m2 :  6.2     ROW SPACING :  80.cm  
 WEATHER        : CUNI   1982                                                   
 SOIL           : CCBUGA2017     TEXTURE : CL    -   Suelo Buga MADR Fase I     
 SOIL INITIAL C : DEPTH: 90cm EXTR. H2O: 83.9mm  NO3:151.4kg/ha  NH4: 62.4kg/ha 
 WATER BALANCE  : RAINFED                                                       
 IRRIGATION     : NOT IRRIGATED                                                 
 NITROGEN BAL.  : SOIL-N & N-UPTAKE SIMULATION; NO N-FIXATION                   
 N-FERTILIZER   :      161 kg/ha IN     5 APPLICATIONS                          
 RESIDUE/MANURE : INITIAL :     0 kg/ha ;       0 kg/ha IN     0 APPLICATIONS   
 ENVIRONM. OPT. : DAYL=    0.00  SRAD=    0.00  TMAX=    0.00  TMIN=    0.00    
                  RAIN=    0.00  CO2 =    0.00  DEW =    0.00  WIND=    0.00    
 SIMULATION OPT : WATER   :Y  NITROGEN:Y  N-FIX:N  PHOSPH :N  PESTS  :N         
                  PHOTO   :C  ET      :R  INFIL:S  HYDROL :R  SOM    :G         
                  CO2 341ppm  NSWIT   :1  EVAP :S  SOIL   :2  STEMP  :D         
 MANAGEMENT OPT : PLANTING:R  IRRIG   :N  FERT :D  RESIDUE:R  HARVEST:M         
                  WEATHER :M  TILLAGE :N                                        
                                                                                
*SUMMARY OF SOIL AND GENETIC INPUT PARAMETERS                                   
                                                                                
   SOIL LOWER UPPER   SAT  EXTR  INIT   ROOT   BULK     pH    NO3    NH4    ORG 
  DEPTH LIMIT LIMIT    SW    SW    SW   DIST   DENS                          C  
   cm   cm3/cm3    cm3/cm3    cm3/cm3         g/cm3         ugN/g  ugN/g     %  
------------------------------------------------------------------------------- 
  0-  5 0.215 0.331 0.341 0.116 0.319   1.00   1.68   6.70  11.90   4.21   0.75 
  5- 15 0.215 0.331 0.341 0.116 0.319   1.00   1.68   6.70  11.90   4.21   0.75 
 15- 25 0.215 0.331 0.341 0.116 0.319   1.00   1.68   6.70  11.90   4.21   0.75 
 25- 35 0.181 0.291 0.364 0.110 0.331   0.50   1.61   7.20  12.15   4.32   0.53 
 35- 45 0.181 0.291 0.364 0.110 0.344   0.50   1.61   7.20  12.40   4.44   0.53 
 45- 67 0.096 0.169 0.404 0.073 0.290   0.27   1.51   7.00  10.67   4.47   0.05 
 67- 90 0.096 0.169 0.404 0.073 0.195   0.27   1.51   7.00   7.63   4.53   0.05 
                                                                                
TOT- 90  13.3  21.7  34.0   8.4  25.6  <--cm   -  kg/ha-->  151.4   62.4  51964 
SOIL ALBEDO    : 0.09      EVAPORATION LIMIT : 6.00         MIN. FACTOR  : 1.00 
RUNOFF CURVE # :76.00      DRAINAGE RATE     : 0.60         FERT. FACTOR : 1.00 
                                                                                
 Maize      CULTIVAR :CI0003-FNC3056            ECOTYPE :IB0001                 
 P1     : 233.00  P2     : 0.5000  P5     : 976.00                              
 G2     : 956.00  G3     :  7.500  PHINT  : 45.600                              


*SIMULATED CROP AND SOIL STATUS AT MAIN DEVELOPMENT STAGES

 RUN NO.     2     P04/07                  

        CROP GROWTH     BIOMASS         LEAF   CROP N     STRESS      STRESS                                           
   DATE  AGE STAGE        kg/ha    LAI   NUM  kg/ha  %   H2O  Nitr Phos1 Phos2  RSTG                                   
 ------  --- ----------   -----  -----  ----  ---  ---  ----  ----  ----  ----  ----                                   
  8 MAR    0 Start Sim        0   0.00   0.0    0  0.0  0.00  0.00  0.00  0.00     7
  7 APR    0 Sowing           0   0.00   0.0    0  0.0  0.00  0.00  0.00  0.00     8
  8 APR    1 Germinate        0   0.00   0.0    0  0.0  0.00  0.00  0.00  0.00     9
 13 APR    6 Emergence       25   0.00   2.0    1  4.4  0.00  0.01  0.00  0.00     1
 26 APR   19 End Juveni      85   0.19   7.7    3  3.3  0.00  0.00  0.00  0.00     2
  4 MAY   27 Floral Ini     302   0.55  10.7   11  3.6  0.00  0.00  0.00  0.00     3
 11 JUN   65 75% Silkin    5701   3.01  22.3  113  2.0  0.00  0.00  0.00  0.00     4
 22 JUN   76 Beg Gr Fil    8054   2.84  22.3  114  1.4  0.00  0.00  0.00  0.00     5
  5 AUG  120 End Gr Fil   11399   0.63  22.3  137  1.2  0.75  0.00  0.00  0.00     6
  8 AUG  123 Maturity     11399   0.63  22.3  137  1.2  0.98  0.00  0.00  0.00    10
  8 AUG  123 Harvest      11399   0.63  22.3  137  1.2  0.00  0.00  0.00  0.00    10


*MAIN GROWTH AND DEVELOPMENT VARIABLES

@     VARIABLE                                         SIMULATED     MEASURED
      --------                                         ---------     --------
      Anthesis day (dap)                                      65          -99
      Physiological maturity day (dap)                       123          -99
      Yield at harvest maturity (kg [dm]/ha)                4736          -99
      Number at maturity (no/m2)                            2839          -99
      Unit wt at maturity (g [dm]/unit)                   0.1668          -99
      Number at maturity (no/unit)                         457.9          -99
      Tops weight at maturity (kg [dm]/ha)                 11399          -99
      By-product produced (stalk) at maturity (kg[dm]/ha    6715          -99
      Leaf area index, maximum                              3.15          -99
      Harvest index at maturity                            0.415          -99
      Grain N at maturity (kg/ha)                             86          -99
      Tops N at maturity (kg/ha)                             137          -99
      Stem N at maturity (kg/ha)                              51          -99
      Grain N at maturity (%)                                1.8          -99
      Tops weight at anthesis (kg [dm]/ha)                  5424          -99
      Tops N at anthesis (kg/ha)                             110          -99
      Leaf number per stem at maturity                     22.28          -99
      Emergence day (dap)                                      6          -99


*ENVIRONMENTAL AND STRESS FACTORS

 |-----Development Phase------|--------------------------------------Environment--------------------------------------|-----------------Stress-----------------|
                              |---------------Average--------------|-----Cumulative-----|--------Count of days--------|          (0=Min, 1=Max Stress)         |
                         Time  Temp  Temp  Temp Solar Photop                Evapo    Pot TMIN TMIN TMAX TMAX TMAX RAIN|----Water----|---Nitrogen--|-Phosphorus-|
                         Span   Max   Min  Mean   Rad  [day]    CO2   Rain  Trans     ET   <    <    >    >    >    >   Photo         Photo         Photo
                         days    邂    邂    邂 MJ/m2     hr    ppm     mm     mm     mm  0邂  2邂 30邂 32邂 34邂  0mm  synth Growth  synth Growth  synth Growth
----------------------------------------------------------------------------------------------------------------------------------------------------------------
 Emergence-End Juvenile    13  30.2  19.7  24.9  14.8  23.76  340.9   18.5   27.6   53.6    0    0    9    1    0    7  0.000  0.000  0.002  0.005  0.000  0.000
 End Juvenil-Floral Init    8  29.8  19.5  24.6  13.6  24.00  340.9   67.4   21.2   29.5    0    0    5    0    0    7  0.000  0.000  0.000  0.001  0.000  0.000
 Floral Init-End Lf Grow   38  29.6  19.6  24.6  14.6  24.00  340.9  180.0  132.7  136.2    0    0   12    0    0   21  0.000  0.000  0.000  0.000  0.000  0.000
 End Lf Grth-Beg Grn Fil   11  30.3  18.7  24.5  15.8  24.00  341.0   23.8   41.4   41.4    0    0    6    0    0    5  0.000  0.000  0.000  0.000  0.000  0.000
 Grain Filling Phase       44  31.9  18.3  25.1  18.8  24.00  341.1   35.0   77.2  205.9    0    0   39   18    4    7  0.666  0.732  0.000  0.000  0.000  0.000


 Planting to Harvest      123  30.6  19.0  24.8  16.2  23.74  341.0  361.2  325.2  505.4    0    0   77   20    4   53  0.262  0.286  0.000  0.001  0.000  0.000
----------------------------------------------------------------------------------------------------------------------------------------------------------------


*Resource Productivity
 Growing season length: 123 days 

 Precipitation during growing season       361.2 mm[rain]
   Dry Matter Productivity                  3.16 kg[DM]/m3[rain]          =   31.6 kg[DM]/ha per mm[rain]
   Yield Productivity                       1.31 kg[grain yield]/m3[rain] =   13.1 kg[yield]/ha per mm[rain]

 Evapotranspiration during growing season  325.2 mm[ET]
   Dry Matter Productivity                  3.51 kg[DM]/m3[ET]            =   35.1 kg[DM]/ha per mm[ET]
   Yield Productivity                       1.46 kg[grain yield]/m3[ET]   =   14.6 kg[yield]/ha per mm[ET]

 Transpiration during growing season       184.4 mm[EP]
   Dry Matter Productivity                  6.18 kg[DM]/m3[EP]            =   61.8 kg[DM]/ha per mm[EP]
   Yield Productivity                       2.57 kg[grain yield]/m3[EP]   =   25.7 kg[yield]/ha per mm[EP]

 N applied during growing season            161. kg[N applied]/ha
   Dry Matter Productivity                  70.8 kg[DM]/kg[N applied]
   Yield Productivity                       29.4 kg[yield]/kg[N applied]

 N uptake during growing season              152 kg[N uptake]/ha
   Dry Matter Productivity                  75.0 kg[DM]/kg[N uptake]
   Yield Productivity                       31.2 kg[yield]/kg[N uptake]

--------------------------------------------------------------------------------------------------------------

                     Maize YIELD :     4736 kg/ha    [Dry weight] 

**************************************************************************************************************

*DSSAT Cropping System Model Ver. 4.6.1.000 -release      OCT 02, 2017; 13:17:30
                                                                                
*RUN   3        : P04/12                    MZCER046 ANBU1982    3              
 MODEL          : MZCER046 - Maize                                              
 EXPERIMENT     : ANBU1982 MZ  Analisis a침os de bajo rendimiento Buga          
 DATA PATH      : C:\DSSAT46\maize\                                             
 TREATMENT  3   : P04/12                    MZCER046                            
                                                                                
                                                                                
 CROP           : Maize            CULTIVAR : FNC3056          ECOTYPE :IB0001  
 STARTING DATE  : MAR 13 1982                                                   
 PLANTING DATE  : APR 12 1982        PLANTS/m2 :  6.2     ROW SPACING :  80.cm  
 WEATHER        : CUNI   1982                                                   
 SOIL           : CCBUGA2017     TEXTURE : CL    -   Suelo Buga MADR Fase I     
 SOIL INITIAL C : DEPTH: 90cm EXTR. H2O: 83.9mm  NO3:151.4kg/ha  NH4: 62.4kg/ha 
 WATER BALANCE  : RAINFED                                                       
 IRRIGATION     : NOT IRRIGATED                                                 
 NITROGEN BAL.  : SOIL-N & N-UPTAKE SIMULATION; NO N-FIXATION                   
 N-FERTILIZER   :      161 kg/ha IN     5 APPLICATIONS                          
 RESIDUE/MANURE : INITIAL :     0 kg/ha ;       0 kg/ha IN     0 APPLICATIONS   
 ENVIRONM. OPT. : DAYL=    0.00  SRAD=    0.00  TMAX=    0.00  TMIN=    0.00    
                  RAIN=    0.00  CO2 =    0.00  DEW =    0.00  WIND=    0.00    
 SIMULATION OPT : WATER   :Y  NITROGEN:Y  N-FIX:N  PHOSPH :N  PESTS  :N         
                  PHOTO   :C  ET      :R  INFIL:S  HYDROL :R  SOM    :G         
                  CO2 341ppm  NSWIT   :1  EVAP :S  SOIL   :2  STEMP  :D         
 MANAGEMENT OPT : PLANTING:R  IRRIG   :N  FERT :D  RESIDUE:R  HARVEST:M         
                  WEATHER :M  TILLAGE :N                                        
                                                                                
*SUMMARY OF SOIL AND GENETIC INPUT PARAMETERS                                   
                                                                                
   SOIL LOWER UPPER   SAT  EXTR  INIT   ROOT   BULK     pH    NO3    NH4    ORG 
  DEPTH LIMIT LIMIT    SW    SW    SW   DIST   DENS                          C  
   cm   cm3/cm3    cm3/cm3    cm3/cm3         g/cm3         ugN/g  ugN/g     %  
------------------------------------------------------------------------------- 
  0-  5 0.215 0.331 0.341 0.116 0.319   1.00   1.68   6.70  11.90   4.21   0.75 
  5- 15 0.215 0.331 0.341 0.116 0.319   1.00   1.68   6.70  11.90   4.21   0.75 
 15- 25 0.215 0.331 0.341 0.116 0.319   1.00   1.68   6.70  11.90   4.21   0.75 
 25- 35 0.181 0.291 0.364 0.110 0.331   0.50   1.61   7.20  12.15   4.32   0.53 
 35- 45 0.181 0.291 0.364 0.110 0.344   0.50   1.61   7.20  12.40   4.44   0.53 
 45- 67 0.096 0.169 0.404 0.073 0.290   0.27   1.51   7.00  10.67   4.47   0.05 
 67- 90 0.096 0.169 0.404 0.073 0.195   0.27   1.51   7.00   7.63   4.53   0.05 
                                                                                
TOT- 90  13.3  21.7  34.0   8.4  25.6  <--cm   -  kg/ha-->  151.4   62.4  51964 
SOIL ALBEDO    : 0.09      EVAPORATION LIMIT : 6.00         MIN. FACTOR  : 1.00 
RUNOFF CURVE # :76.00      DRAINAGE RATE     : 0.60         FERT. FACTOR : 1.00 
                                                                                
 Maize      CULTIVAR :CI0003-FNC3056            ECOTYPE :IB0001                 
 P1     : 233.00  P2     : 0.5000  P5     : 976.00                              
 G2     : 956.00  G3     :  7.500  PHINT  : 45.600                              


*SIMULATED CROP AND SOIL STATUS AT MAIN DEVELOPMENT STAGES

 RUN NO.     3     P04/12                  

        CROP GROWTH     BIOMASS         LEAF   CROP N     STRESS      STRESS                                           
   DATE  AGE STAGE        kg/ha    LAI   NUM  kg/ha  %   H2O  Nitr Phos1 Phos2  RSTG                                   
 ------  --- ----------   -----  -----  ----  ---  ---  ----  ----  ----  ----  ----                                   
 13 MAR    0 Start Sim        0   0.00   0.0    0  0.0  0.00  0.00  0.00  0.00     7
 12 APR    0 Sowing           0   0.00   0.0    0  0.0  0.00  0.00  0.00  0.00     8
 13 APR    1 Germinate        0   0.00   0.0    0  0.0  0.00  0.00  0.00  0.00     9
 18 APR    6 Emergence       25   0.00   2.1    1  4.4  0.00  0.01  0.00  0.00     1
  1 MAY   19 End Juveni      86   0.19   7.6    3  3.6  0.00  0.00  0.00  0.00     2
  9 MAY   27 Floral Ini     259   0.48  10.7    9  3.6  0.00  0.00  0.00  0.00     3
 16 JUN   65 75% Silkin    6041   3.17  22.3  118  1.9  0.00  0.00  0.00  0.00     4
 27 JUN   76 Beg Gr Fil    8170   2.91  22.3  118  1.4  0.15  0.00  0.00  0.00     5
 10 AUG  120 End Gr Fil   10640   0.53  22.3  126  1.2  0.83  0.00  0.00  0.00     6
 13 AUG  123 Maturity     10640   0.53  22.3  126  1.2  0.98  0.00  0.00  0.00    10
 13 AUG  123 Harvest      10640   0.53  22.3  126  1.2  0.00  0.00  0.00  0.00    10


*MAIN GROWTH AND DEVELOPMENT VARIABLES

@     VARIABLE                                         SIMULATED     MEASURED
      --------                                         ---------     --------
      Anthesis day (dap)                                      65          -99
      Physiological maturity day (dap)                       123          -99
      Yield at harvest maturity (kg [dm]/ha)                3755          -99
      Number at maturity (no/m2)                            2657          -99
      Unit wt at maturity (g [dm]/unit)                   0.1413          -99
      Number at maturity (no/unit)                         428.5          -99
      Tops weight at maturity (kg [dm]/ha)                 10640          -99
      By-product produced (stalk) at maturity (kg[dm]/ha    6939          -99
      Leaf area index, maximum                              3.33          -99
      Harvest index at maturity                            0.353          -99
      Grain N at maturity (kg/ha)                             69          -99
      Tops N at maturity (kg/ha)                             126          -99
      Stem N at maturity (kg/ha)                              57          -99
      Grain N at maturity (%)                                1.8          -99
      Tops weight at anthesis (kg [dm]/ha)                  5831          -99
      Tops N at anthesis (kg/ha)                             118          -99
      Leaf number per stem at maturity                     22.26          -99
      Emergence day (dap)                                      6          -99


*ENVIRONMENTAL AND STRESS FACTORS

 |-----Development Phase------|--------------------------------------Environment--------------------------------------|-----------------Stress-----------------|
                              |---------------Average--------------|-----Cumulative-----|--------Count of days--------|          (0=Min, 1=Max Stress)         |
                         Time  Temp  Temp  Temp Solar Photop                Evapo    Pot TMIN TMIN TMAX TMAX TMAX RAIN|----Water----|---Nitrogen--|-Phosphorus-|
                         Span   Max   Min  Mean   Rad  [day]    CO2   Rain  Trans     ET   <    <    >    >    >    >   Photo         Photo         Photo
                         days    邂    邂    邂 MJ/m2     hr    ppm     mm     mm     mm  0邂  2邂 30邂 32邂 34邂  0mm  synth Growth  synth Growth  synth Growth
----------------------------------------------------------------------------------------------------------------------------------------------------------------
 Emergence-End Juvenile    13  29.9  19.8  24.8  13.3  24.00  340.9   17.0   20.9   48.4    0    0    8    1    0    9  0.000  0.000  0.002  0.005  0.000  0.000
 End Juvenil-Floral Init    8  30.2  19.9  25.0  13.0  24.00  340.9   79.2   28.5   28.5    0    0    4    0    0    6  0.000  0.000  0.000  0.001  0.000  0.000
 Floral Init-End Lf Grow   38  29.7  19.5  24.6  15.4  24.00  341.0  173.4  136.4  144.2    0    0   13    0    0   20  0.000  0.000  0.000  0.000  0.000  0.000
 End Lf Grth-Beg Grn Fil   11  30.3  18.6  24.4  15.3  24.00  341.1   10.7   37.8   40.0    0    0    6    0    0    3  0.044  0.090  0.000  0.000  0.000  0.000
 Grain Filling Phase       44  32.1  18.2  25.1  19.1  24.00  341.1   38.1   61.4  211.3    0    0   41   20    4    9  0.769  0.823  0.000  0.000  0.000  0.000


 Planting to Harvest      123  30.8  18.9  24.9  16.4  23.95  341.0  327.8  302.9  514.0    0    0   79   24    7   49  0.303  0.327  0.000  0.001  0.000  0.000
----------------------------------------------------------------------------------------------------------------------------------------------------------------


*Resource Productivity
 Growing season length: 123 days 

 Precipitation during growing season       327.8 mm[rain]
   Dry Matter Productivity                  3.25 kg[DM]/m3[rain]          =   32.5 kg[DM]/ha per mm[rain]
   Yield Productivity                       1.15 kg[grain yield]/m3[rain] =   11.5 kg[yield]/ha per mm[rain]

 Evapotranspiration during growing season  302.9 mm[ET]
   Dry Matter Productivity                  3.51 kg[DM]/m3[ET]            =   35.1 kg[DM]/ha per mm[ET]
   Yield Productivity                       1.24 kg[grain yield]/m3[ET]   =   12.4 kg[yield]/ha per mm[ET]

 Transpiration during growing season       169.8 mm[EP]
   Dry Matter Productivity                  6.27 kg[DM]/m3[EP]            =   62.7 kg[DM]/ha per mm[EP]
   Yield Productivity                       2.21 kg[grain yield]/m3[EP]   =   22.1 kg[yield]/ha per mm[EP]

 N applied during growing season            161. kg[N applied]/ha
   Dry Matter Productivity                  66.1 kg[DM]/kg[N applied]
   Yield Productivity                       23.3 kg[yield]/kg[N applied]

 N uptake during growing season              139 kg[N uptake]/ha
   Dry Matter Productivity                  76.5 kg[DM]/kg[N uptake]
   Yield Productivity                       27.0 kg[yield]/kg[N uptake]

--------------------------------------------------------------------------------------------------------------

                     Maize YIELD :     3755 kg/ha    [Dry weight] 

**************************************************************************************************************

*DSSAT Cropping System Model Ver. 4.6.1.000 -release      OCT 02, 2017; 13:17:30
                                                                                
*RUN   4        : P04/17                    MZCER046 ANBU1982    4              
 MODEL          : MZCER046 - Maize                                              
 EXPERIMENT     : ANBU1982 MZ  Analisis a침os de bajo rendimiento Buga          
 DATA PATH      : C:\DSSAT46\maize\                                             
 TREATMENT  4   : P04/17                    MZCER046                            
                                                                                
                                                                                
 CROP           : Maize            CULTIVAR : FNC3056          ECOTYPE :IB0001  
 STARTING DATE  : MAR 18 1982                                                   
 PLANTING DATE  : APR 17 1982        PLANTS/m2 :  6.2     ROW SPACING :  80.cm  
 WEATHER        : CUNI   1982                                                   
 SOIL           : CCBUGA2017     TEXTURE : CL    -   Suelo Buga MADR Fase I     
 SOIL INITIAL C : DEPTH: 90cm EXTR. H2O: 83.9mm  NO3:151.4kg/ha  NH4: 62.4kg/ha 
 WATER BALANCE  : RAINFED                                                       
 IRRIGATION     : NOT IRRIGATED                                                 
 NITROGEN BAL.  : SOIL-N & N-UPTAKE SIMULATION; NO N-FIXATION                   
 N-FERTILIZER   :      161 kg/ha IN     5 APPLICATIONS                          
 RESIDUE/MANURE : INITIAL :     0 kg/ha ;       0 kg/ha IN     0 APPLICATIONS   
 ENVIRONM. OPT. : DAYL=    0.00  SRAD=    0.00  TMAX=    0.00  TMIN=    0.00    
                  RAIN=    0.00  CO2 =    0.00  DEW =    0.00  WIND=    0.00    
 SIMULATION OPT : WATER   :Y  NITROGEN:Y  N-FIX:N  PHOSPH :N  PESTS  :N         
                  PHOTO   :C  ET      :R  INFIL:S  HYDROL :R  SOM    :G         
                  CO2 341ppm  NSWIT   :1  EVAP :S  SOIL   :2  STEMP  :D         
 MANAGEMENT OPT : PLANTING:R  IRRIG   :N  FERT :D  RESIDUE:R  HARVEST:M         
                  WEATHER :M  TILLAGE :N                                        
                                                                                
*SUMMARY OF SOIL AND GENETIC INPUT PARAMETERS                                   
                                                                                
   SOIL LOWER UPPER   SAT  EXTR  INIT   ROOT   BULK     pH    NO3    NH4    ORG 
  DEPTH LIMIT LIMIT    SW    SW    SW   DIST   DENS                          C  
   cm   cm3/cm3    cm3/cm3    cm3/cm3         g/cm3         ugN/g  ugN/g     %  
------------------------------------------------------------------------------- 
  0-  5 0.215 0.331 0.341 0.116 0.319   1.00   1.68   6.70  11.90   4.21   0.75 
  5- 15 0.215 0.331 0.341 0.116 0.319   1.00   1.68   6.70  11.90   4.21   0.75 
 15- 25 0.215 0.331 0.341 0.116 0.319   1.00   1.68   6.70  11.90   4.21   0.75 
 25- 35 0.181 0.291 0.364 0.110 0.331   0.50   1.61   7.20  12.15   4.32   0.53 
 35- 45 0.181 0.291 0.364 0.110 0.344   0.50   1.61   7.20  12.40   4.44   0.53 
 45- 67 0.096 0.169 0.404 0.073 0.290   0.27   1.51   7.00  10.67   4.47   0.05 
 67- 90 0.096 0.169 0.404 0.073 0.195   0.27   1.51   7.00   7.63   4.53   0.05 
                                                                                
TOT- 90  13.3  21.7  34.0   8.4  25.6  <--cm   -  kg/ha-->  151.4   62.4  51964 
SOIL ALBEDO    : 0.09      EVAPORATION LIMIT : 6.00         MIN. FACTOR  : 1.00 
RUNOFF CURVE # :76.00      DRAINAGE RATE     : 0.60         FERT. FACTOR : 1.00 
                                                                                
 Maize      CULTIVAR :CI0003-FNC3056            ECOTYPE :IB0001                 
 P1     : 233.00  P2     : 0.5000  P5     : 976.00                              
 G2     : 956.00  G3     :  7.500  PHINT  : 45.600                              


*SIMULATED CROP AND SOIL STATUS AT MAIN DEVELOPMENT STAGES

 RUN NO.     4     P04/17                  

        CROP GROWTH     BIOMASS         LEAF   CROP N     STRESS      STRESS                                           
   DATE  AGE STAGE        kg/ha    LAI   NUM  kg/ha  %   H2O  Nitr Phos1 Phos2  RSTG                                   
 ------  --- ----------   -----  -----  ----  ---  ---  ----  ----  ----  ----  ----                                   
 18 MAR    0 Start Sim        0   0.00   0.0    0  0.0  0.00  0.00  0.00  0.00     7
 17 APR    0 Sowing           0   0.00   0.0    0  0.0  0.00  0.00  0.00  0.00     8
 18 APR    1 Germinate        0   0.00   0.0    0  0.0  0.00  0.00  0.00  0.00     9
 23 APR    6 Emergence       25   0.00   2.1    1  4.4  0.00  0.01  0.00  0.00     1
  6 MAY   19 End Juveni      71   0.16   7.6    3  3.7  0.00  0.00  0.00  0.00     2
 14 MAY   27 Floral Ini     255   0.48  10.6    9  3.6  0.00  0.00  0.00  0.00     3
 22 JUN   66 75% Silkin    6473   3.27  22.3  126  2.0  0.00  0.00  0.00  0.00     4
  2 JUL   76 Beg Gr Fil    7590   2.54  22.3  126  1.7  0.59  0.00  0.00  0.00     5
 14 AUG  119 End Gr Fil    9288   0.46  22.3  126  1.4  0.84  0.00  0.00  0.00     6
 17 AUG  122 Maturity      9288   0.46  22.3  126  1.4  0.33  0.00  0.00  0.00    10
 17 AUG  122 Harvest       9288   0.46  22.3  126  1.4  0.00  0.00  0.00  0.00    10


*MAIN GROWTH AND DEVELOPMENT VARIABLES

@     VARIABLE                                         SIMULATED     MEASURED
      --------                                         ---------     --------
      Anthesis day (dap)                                      66          -99
      Physiological maturity day (dap)                       122          -99
      Yield at harvest maturity (kg [dm]/ha)                3098          -99
      Number at maturity (no/m2)                            1955          -99
      Unit wt at maturity (g [dm]/unit)                   0.1585          -99
      Number at maturity (no/unit)                         315.3          -99
      Tops weight at maturity (kg [dm]/ha)                  9288          -99
      By-product produced (stalk) at maturity (kg[dm]/ha    6246          -99
      Leaf area index, maximum                              3.44          -99
      Harvest index at maturity                            0.334          -99
      Grain N at maturity (kg/ha)                             58          -99
      Tops N at maturity (kg/ha)                             126          -99
      Stem N at maturity (kg/ha)                              69          -99
      Grain N at maturity (%)                                1.9          -99
      Tops weight at anthesis (kg [dm]/ha)                  6258          -99
      Tops N at anthesis (kg/ha)                             125          -99
      Leaf number per stem at maturity                     22.27          -99
      Emergence day (dap)                                      6          -99


*ENVIRONMENTAL AND STRESS FACTORS

 |-----Development Phase------|--------------------------------------Environment--------------------------------------|-----------------Stress-----------------|
                              |---------------Average--------------|-----Cumulative-----|--------Count of days--------|          (0=Min, 1=Max Stress)         |
                         Time  Temp  Temp  Temp Solar Photop                Evapo    Pot TMIN TMIN TMAX TMAX TMAX RAIN|----Water----|---Nitrogen--|-Phosphorus-|
                         Span   Max   Min  Mean   Rad  [day]    CO2   Rain  Trans     ET   <    <    >    >    >    >   Photo         Photo         Photo
                         days    邂    邂    邂 MJ/m2     hr    ppm     mm     mm     mm  0邂  2邂 30邂 32邂 34邂  0mm  synth Growth  synth Growth  synth Growth
----------------------------------------------------------------------------------------------------------------------------------------------------------------
 Emergence-End Juvenile    13  30.1  19.7  24.9  13.7  24.00  340.9   74.7   30.5   49.7    0    0    8    1    0    9  0.000  0.000  0.002  0.005  0.000  0.000
 End Juvenil-Floral Init    8  29.7  19.8  24.8  13.5  24.00  340.9   18.4   20.6   29.4    0    0    4    0    0    4  0.000  0.000  0.000  0.001  0.000  0.000
 Floral Init-End Lf Grow   39  29.7  19.2  24.5  15.3  24.00  341.0  178.9  143.6  146.7    0    0   13    0    0   21  0.000  0.000  0.000  0.000  0.000  0.000
 End Lf Grth-Beg Grn Fil   10  31.5  18.5  25.0  17.8  24.00  341.1    0.0   26.4   42.7    0    0    7    3    1    0  0.403  0.503  0.000  0.000  0.000  0.000
 Grain Filling Phase       43  32.3  18.2  25.2  19.2  24.00  341.1   38.1   54.1  209.2    0    0   41   21    6    9  0.796  0.841  0.000  0.000  0.000  0.000


 Planting to Harvest      122  30.9  18.9  24.9  16.5  24.00  341.0  346.6  292.3  515.4    0    0   79   28    9   50  0.329  0.354  0.000  0.001  0.000  0.000
----------------------------------------------------------------------------------------------------------------------------------------------------------------


*Resource Productivity
 Growing season length: 122 days 

 Precipitation during growing season       346.6 mm[rain]
   Dry Matter Productivity                  2.68 kg[DM]/m3[rain]          =   26.8 kg[DM]/ha per mm[rain]
   Yield Productivity                       0.89 kg[grain yield]/m3[rain] =    8.9 kg[yield]/ha per mm[rain]

 Evapotranspiration during growing season  292.3 mm[ET]
   Dry Matter Productivity                  3.18 kg[DM]/m3[ET]            =   31.8 kg[DM]/ha per mm[ET]
   Yield Productivity                       1.06 kg[grain yield]/m3[ET]   =   10.6 kg[yield]/ha per mm[ET]

 Transpiration during growing season       156.1 mm[EP]
   Dry Matter Productivity                  5.95 kg[DM]/m3[EP]            =   59.5 kg[DM]/ha per mm[EP]
   Yield Productivity                       1.98 kg[grain yield]/m3[EP]   =   19.8 kg[yield]/ha per mm[EP]

 N applied during growing season            161. kg[N applied]/ha
   Dry Matter Productivity                  57.7 kg[DM]/kg[N applied]
   Yield Productivity                       19.2 kg[yield]/kg[N applied]

 N uptake during growing season              137 kg[N uptake]/ha
   Dry Matter Productivity                  67.8 kg[DM]/kg[N uptake]
   Yield Productivity                       22.6 kg[yield]/kg[N uptake]

--------------------------------------------------------------------------------------------------------------

                     Maize YIELD :     3098 kg/ha    [Dry weight] 

**************************************************************************************************************

*DSSAT Cropping System Model Ver. 4.6.1.000 -release      OCT 02, 2017; 13:17:30
                                                                                
*RUN   5        : P04/22                    MZCER046 ANBU1982    5              
 MODEL          : MZCER046 - Maize                                              
 EXPERIMENT     : ANBU1982 MZ  Analisis a침os de bajo rendimiento Buga          
 DATA PATH      : C:\DSSAT46\maize\                                             
 TREATMENT  5   : P04/22                    MZCER046                            
                                                                                
                                                                                
 CROP           : Maize            CULTIVAR : FNC3056          ECOTYPE :IB0001  
 STARTING DATE  : MAR 23 1982                                                   
 PLANTING DATE  : APR 22 1982        PLANTS/m2 :  6.2     ROW SPACING :  80.cm  
 WEATHER        : CUNI   1982                                                   
 SOIL           : CCBUGA2017     TEXTURE : CL    -   Suelo Buga MADR Fase I     
 SOIL INITIAL C : DEPTH: 90cm EXTR. H2O: 83.9mm  NO3:151.4kg/ha  NH4: 62.4kg/ha 
 WATER BALANCE  : RAINFED                                                       
 IRRIGATION     : NOT IRRIGATED                                                 
 NITROGEN BAL.  : SOIL-N & N-UPTAKE SIMULATION; NO N-FIXATION                   
 N-FERTILIZER   :      161 kg/ha IN     5 APPLICATIONS                          
 RESIDUE/MANURE : INITIAL :     0 kg/ha ;       0 kg/ha IN     0 APPLICATIONS   
 ENVIRONM. OPT. : DAYL=    0.00  SRAD=    0.00  TMAX=    0.00  TMIN=    0.00    
                  RAIN=    0.00  CO2 =    0.00  DEW =    0.00  WIND=    0.00    
 SIMULATION OPT : WATER   :Y  NITROGEN:Y  N-FIX:N  PHOSPH :N  PESTS  :N         
                  PHOTO   :C  ET      :R  INFIL:S  HYDROL :R  SOM    :G         
                  CO2 341ppm  NSWIT   :1  EVAP :S  SOIL   :2  STEMP  :D         
 MANAGEMENT OPT : PLANTING:R  IRRIG   :N  FERT :D  RESIDUE:R  HARVEST:M         
                  WEATHER :M  TILLAGE :N                                        
                                                                                
*SUMMARY OF SOIL AND GENETIC INPUT PARAMETERS                                   
                                                                                
   SOIL LOWER UPPER   SAT  EXTR  INIT   ROOT   BULK     pH    NO3    NH4    ORG 
  DEPTH LIMIT LIMIT    SW    SW    SW   DIST   DENS                          C  
   cm   cm3/cm3    cm3/cm3    cm3/cm3         g/cm3         ugN/g  ugN/g     %  
------------------------------------------------------------------------------- 
  0-  5 0.215 0.331 0.341 0.116 0.319   1.00   1.68   6.70  11.90   4.21   0.75 
  5- 15 0.215 0.331 0.341 0.116 0.319   1.00   1.68   6.70  11.90   4.21   0.75 
 15- 25 0.215 0.331 0.341 0.116 0.319   1.00   1.68   6.70  11.90   4.21   0.75 
 25- 35 0.181 0.291 0.364 0.110 0.331   0.50   1.61   7.20  12.15   4.32   0.53 
 35- 45 0.181 0.291 0.364 0.110 0.344   0.50   1.61   7.20  12.40   4.44   0.53 
 45- 67 0.096 0.169 0.404 0.073 0.290   0.27   1.51   7.00  10.67   4.47   0.05 
 67- 90 0.096 0.169 0.404 0.073 0.195   0.27   1.51   7.00   7.63   4.53   0.05 
                                                                                
TOT- 90  13.3  21.7  34.0   8.4  25.6  <--cm   -  kg/ha-->  151.4   62.4  51964 
SOIL ALBEDO    : 0.09      EVAPORATION LIMIT : 6.00         MIN. FACTOR  : 1.00 
RUNOFF CURVE # :76.00      DRAINAGE RATE     : 0.60         FERT. FACTOR : 1.00 
                                                                                
 Maize      CULTIVAR :CI0003-FNC3056            ECOTYPE :IB0001                 
 P1     : 233.00  P2     : 0.5000  P5     : 976.00                              
 G2     : 956.00  G3     :  7.500  PHINT  : 45.600                              


*SIMULATED CROP AND SOIL STATUS AT MAIN DEVELOPMENT STAGES

 RUN NO.     5     P04/22                  

        CROP GROWTH     BIOMASS         LEAF   CROP N     STRESS      STRESS                                           
   DATE  AGE STAGE        kg/ha    LAI   NUM  kg/ha  %   H2O  Nitr Phos1 Phos2  RSTG                                   
 ------  --- ----------   -----  -----  ----  ---  ---  ----  ----  ----  ----  ----                                   
 23 MAR    0 Start Sim        0   0.00   0.0    0  0.0  0.00  0.00  0.00  0.00     7
 22 APR    0 Sowing           0   0.00   0.0    0  0.0  0.00  0.00  0.00  0.00     8
 23 APR    1 Germinate        0   0.00   0.0    0  0.0  0.00  0.00  0.00  0.00     9
 28 APR    6 Emergence       25   0.00   2.0    1  4.4  0.00  0.01  0.00  0.00     1
 11 MAY   19 End Juveni      62   0.14   7.5    2  3.3  0.00  0.00  0.00  0.00     2
 19 MAY   27 Floral Ini     241   0.45  10.6    9  3.6  0.00  0.00  0.00  0.00     3
 26 JUN   65 75% Silkin    6531   3.48  22.1  137  2.1  0.04  0.00  0.00  0.00     4
  6 JUL   75 Beg Gr Fil    7193   2.61  22.1  137  1.9  0.65  0.00  0.00  0.00     5
 19 AUG  119 End Gr Fil    8715   0.47  22.1  137  1.6  0.80  0.00  0.00  0.00     6
 21 AUG  121 Maturity      8715   0.47  22.1  137  1.6  0.00  0.00  0.00  0.00    10
 21 AUG  121 Harvest       8715   0.47  22.1  137  1.6  0.00  0.00  0.00  0.00    10


*MAIN GROWTH AND DEVELOPMENT VARIABLES

@     VARIABLE                                         SIMULATED     MEASURED
      --------                                         ---------     --------
      Anthesis day (dap)                                      65          -99
      Physiological maturity day (dap)                       121          -99
      Yield at harvest maturity (kg [dm]/ha)                2726          -99
      Number at maturity (no/m2)                            1418          -99
      Unit wt at maturity (g [dm]/unit)                   0.1922          -99
      Number at maturity (no/unit)                         228.8          -99
      Tops weight at maturity (kg [dm]/ha)                  8715          -99
      By-product produced (stalk) at maturity (kg[dm]/ha    6046          -99
      Leaf area index, maximum                              3.63          -99
      Harvest index at maturity                            0.313          -99
      Grain N at maturity (kg/ha)                             51          -99
      Tops N at maturity (kg/ha)                             137          -99
      Stem N at maturity (kg/ha)                              87          -99
      Grain N at maturity (%)                                1.9          -99
      Tops weight at anthesis (kg [dm]/ha)                  6385          -99
      Tops N at anthesis (kg/ha)                             134          -99
      Leaf number per stem at maturity                     22.14          -99
      Emergence day (dap)                                      6          -99


*ENVIRONMENTAL AND STRESS FACTORS

 |-----Development Phase------|--------------------------------------Environment--------------------------------------|-----------------Stress-----------------|
                              |---------------Average--------------|-----Cumulative-----|--------Count of days--------|          (0=Min, 1=Max Stress)         |
                         Time  Temp  Temp  Temp Solar Photop                Evapo    Pot TMIN TMIN TMAX TMAX TMAX RAIN|----Water----|---Nitrogen--|-Phosphorus-|
                         Span   Max   Min  Mean   Rad  [day]    CO2   Rain  Trans     ET   <    <    >    >    >    >   Photo         Photo         Photo
                         days    邂    邂    邂 MJ/m2     hr    ppm     mm     mm     mm  0邂  2邂 30邂 32邂 34邂  0mm  synth Growth  synth Growth  synth Growth
----------------------------------------------------------------------------------------------------------------------------------------------------------------
 Emergence-End Juvenile    13  29.4  19.8  24.6  12.4  24.00  340.9   84.5   37.8   44.8    0    0    5    0    0    8  0.000  0.000  0.002  0.005  0.000  0.000
 End Juvenil-Floral Init    8  30.2  19.5  24.9  15.7  24.00  340.9   58.7   24.6   34.3    0    0    4    0    0    6  0.000  0.000  0.000  0.000  0.000  0.000
 Floral Init-End Lf Grow   38  29.8  19.2  24.5  15.4  24.00  341.0  125.4  140.2  144.0    0    0   14    0    0   17  0.011  0.020  0.000  0.000  0.000  0.000
 End Lf Grth-Beg Grn Fil   10  31.7  18.5  25.1  18.2  24.00  341.1   25.6   19.7   43.7    0    0    9    3    1    2  0.613  0.709  0.000  0.000  0.000  0.000
 Grain Filling Phase       44  32.6  18.2  25.4  19.5  24.00  341.1   39.9   60.9  219.5    0    0   42   26    9    9  0.757  0.798  0.000  0.000  0.000  0.000


 Planting to Harvest      121  31.1  18.9  25.0  16.9  24.00  341.0  338.8  295.6  522.4    0    0   81   32   11   46  0.329  0.355  0.000  0.001  0.000  0.000
----------------------------------------------------------------------------------------------------------------------------------------------------------------


*Resource Productivity
 Growing season length: 121 days 

 Precipitation during growing season       338.8 mm[rain]
   Dry Matter Productivity                  2.57 kg[DM]/m3[rain]          =   25.7 kg[DM]/ha per mm[rain]
   Yield Productivity                       0.80 kg[grain yield]/m3[rain] =    8.0 kg[yield]/ha per mm[rain]

 Evapotranspiration during growing season  295.6 mm[ET]
   Dry Matter Productivity                  2.95 kg[DM]/m3[ET]            =   29.5 kg[DM]/ha per mm[ET]
   Yield Productivity                       0.92 kg[grain yield]/m3[ET]   =    9.2 kg[yield]/ha per mm[ET]

 Transpiration during growing season       150.0 mm[EP]
   Dry Matter Productivity                  5.81 kg[DM]/m3[EP]            =   58.1 kg[DM]/ha per mm[EP]
   Yield Productivity                       1.82 kg[grain yield]/m3[EP]   =   18.2 kg[yield]/ha per mm[EP]

 N applied during growing season            161. kg[N applied]/ha
   Dry Matter Productivity                  54.1 kg[DM]/kg[N applied]
   Yield Productivity                       16.9 kg[yield]/kg[N applied]

 N uptake during growing season              147 kg[N uptake]/ha
   Dry Matter Productivity                  59.3 kg[DM]/kg[N uptake]
   Yield Productivity                       18.5 kg[yield]/kg[N uptake]

--------------------------------------------------------------------------------------------------------------

                     Maize YIELD :     2726 kg/ha    [Dry weight] 

**************************************************************************************************************

*DSSAT Cropping System Model Ver. 4.6.1.000 -release      OCT 02, 2017; 13:17:30
                                                                                
*RUN   6        : P04/27                    MZCER046 ANBU1982    6              
 MODEL          : MZCER046 - Maize                                              
 EXPERIMENT     : ANBU1982 MZ  Analisis a침os de bajo rendimiento Buga          
 DATA PATH      : C:\DSSAT46\maize\                                             
 TREATMENT  6   : P04/27                    MZCER046                            
                                                                                
                                                                                
 CROP           : Maize            CULTIVAR : FNC3056          ECOTYPE :IB0001  
 STARTING DATE  : MAR 28 1982                                                   
 PLANTING DATE  : APR 27 1982        PLANTS/m2 :  6.2     ROW SPACING :  80.cm  
 WEATHER        : CUNI   1982                                                   
 SOIL           : CCBUGA2017     TEXTURE : CL    -   Suelo Buga MADR Fase I     
 SOIL INITIAL C : DEPTH: 90cm EXTR. H2O: 83.9mm  NO3:151.4kg/ha  NH4: 62.4kg/ha 
 WATER BALANCE  : RAINFED                                                       
 IRRIGATION     : NOT IRRIGATED                                                 
 NITROGEN BAL.  : SOIL-N & N-UPTAKE SIMULATION; NO N-FIXATION                   
 N-FERTILIZER   :      161 kg/ha IN     5 APPLICATIONS                          
 RESIDUE/MANURE : INITIAL :     0 kg/ha ;       0 kg/ha IN     0 APPLICATIONS   
 ENVIRONM. OPT. : DAYL=    0.00  SRAD=    0.00  TMAX=    0.00  TMIN=    0.00    
                  RAIN=    0.00  CO2 =    0.00  DEW =    0.00  WIND=    0.00    
 SIMULATION OPT : WATER   :Y  NITROGEN:Y  N-FIX:N  PHOSPH :N  PESTS  :N         
                  PHOTO   :C  ET      :R  INFIL:S  HYDROL :R  SOM    :G         
                  CO2 341ppm  NSWIT   :1  EVAP :S  SOIL   :2  STEMP  :D         
 MANAGEMENT OPT : PLANTING:R  IRRIG   :N  FERT :D  RESIDUE:R  HARVEST:M         
                  WEATHER :M  TILLAGE :N                                        
                                                                                
*SUMMARY OF SOIL AND GENETIC INPUT PARAMETERS                                   
                                                                                
   SOIL LOWER UPPER   SAT  EXTR  INIT   ROOT   BULK     pH    NO3    NH4    ORG 
  DEPTH LIMIT LIMIT    SW    SW    SW   DIST   DENS                          C  
   cm   cm3/cm3    cm3/cm3    cm3/cm3         g/cm3         ugN/g  ugN/g     %  
------------------------------------------------------------------------------- 
  0-  5 0.215 0.331 0.341 0.116 0.319   1.00   1.68   6.70  11.90   4.21   0.75 
  5- 15 0.215 0.331 0.341 0.116 0.319   1.00   1.68   6.70  11.90   4.21   0.75 
 15- 25 0.215 0.331 0.341 0.116 0.319   1.00   1.68   6.70  11.90   4.21   0.75 
 25- 35 0.181 0.291 0.364 0.110 0.331   0.50   1.61   7.20  12.15   4.32   0.53 
 35- 45 0.181 0.291 0.364 0.110 0.344   0.50   1.61   7.20  12.40   4.44   0.53 
 45- 67 0.096 0.169 0.404 0.073 0.290   0.27   1.51   7.00  10.67   4.47   0.05 
 67- 90 0.096 0.169 0.404 0.073 0.195   0.27   1.51   7.00   7.63   4.53   0.05 
                                                                                
TOT- 90  13.3  21.7  34.0   8.4  25.6  <--cm   -  kg/ha-->  151.4   62.4  51964 
SOIL ALBEDO    : 0.09      EVAPORATION LIMIT : 6.00         MIN. FACTOR  : 1.00 
RUNOFF CURVE # :76.00      DRAINAGE RATE     : 0.60         FERT. FACTOR : 1.00 
                                                                                
 Maize      CULTIVAR :CI0003-FNC3056            ECOTYPE :IB0001                 
 P1     : 233.00  P2     : 0.5000  P5     : 976.00                              
 G2     : 956.00  G3     :  7.500  PHINT  : 45.600                              


*SIMULATED CROP AND SOIL STATUS AT MAIN DEVELOPMENT STAGES

 RUN NO.     6     P04/27                  

        CROP GROWTH     BIOMASS         LEAF   CROP N     STRESS      STRESS                                           
   DATE  AGE STAGE        kg/ha    LAI   NUM  kg/ha  %   H2O  Nitr Phos1 Phos2  RSTG                                   
 ------  --- ----------   -----  -----  ----  ---  ---  ----  ----  ----  ----  ----                                   
 28 MAR    0 Start Sim        0   0.00   0.0    0  0.0  0.00  0.00  0.00  0.00     7
 27 APR    0 Sowing           0   0.00   0.0    0  0.0  0.00  0.00  0.00  0.00     8
 28 APR    1 Germinate        0   0.00   0.0    0  0.0  0.00  0.00  0.00  0.00     9
  3 MAY    6 Emergence       25   0.00   2.1    1  4.4  0.00  0.01  0.00  0.00     1
 16 MAY   19 End Juveni      75   0.16   7.6    3  3.4  0.00  0.00  0.00  0.00     2
 24 MAY   27 Floral Ini     242   0.46  10.5    9  3.6  0.00  0.00  0.00  0.00     3
  1 JUL   65 75% Silkin    6025   3.00  21.8  131  2.2  0.13  0.00  0.00  0.00     4
 11 JUL   75 Beg Gr Fil    7271   2.40  21.8  131  1.8  0.52  0.00  0.00  0.00     5
 23 AUG  118 End Gr Fil    8795   0.47  21.8  131  1.5  0.80  0.00  0.00  0.00     6
 25 AUG  120 Maturity      8795   0.47  21.8  131  1.5  0.88  0.00  0.00  0.00    10
 25 AUG  120 Harvest       8795   0.47  21.8  131  1.5  0.00  0.00  0.00  0.00    10


*MAIN GROWTH AND DEVELOPMENT VARIABLES

@     VARIABLE                                         SIMULATED     MEASURED
      --------                                         ---------     --------
      Anthesis day (dap)                                      65          -99
      Physiological maturity day (dap)                       120          -99
      Yield at harvest maturity (kg [dm]/ha)                2710          -99
      Number at maturity (no/m2)                            1949          -99
      Unit wt at maturity (g [dm]/unit)                   0.1390          -99
      Number at maturity (no/unit)                         314.4          -99
      Tops weight at maturity (kg [dm]/ha)                  8795          -99
      By-product produced (stalk) at maturity (kg[dm]/ha    6144          -99
      Leaf area index, maximum                              3.52          -99
      Harvest index at maturity                            0.308          -99
      Grain N at maturity (kg/ha)                             50          -99
      Tops N at maturity (kg/ha)                             131          -99
      Stem N at maturity (kg/ha)                              81          -99
      Grain N at maturity (%)                                1.9          -99
      Tops weight at anthesis (kg [dm]/ha)                  5964          -99
      Tops N at anthesis (kg/ha)                             131          -99
      Leaf number per stem at maturity                     21.82          -99
      Emergence day (dap)                                      6          -99


*ENVIRONMENTAL AND STRESS FACTORS

 |-----Development Phase------|--------------------------------------Environment--------------------------------------|-----------------Stress-----------------|
                              |---------------Average--------------|-----Cumulative-----|--------Count of days--------|          (0=Min, 1=Max Stress)         |
                         Time  Temp  Temp  Temp Solar Photop                Evapo    Pot TMIN TMIN TMAX TMAX TMAX RAIN|----Water----|---Nitrogen--|-Phosphorus-|
                         Span   Max   Min  Mean   Rad  [day]    CO2   Rain  Trans     ET   <    <    >    >    >    >   Photo         Photo         Photo
                         days    邂    邂    邂 MJ/m2     hr    ppm     mm     mm     mm  0邂  2邂 30邂 32邂 34邂  0mm  synth Growth  synth Growth  synth Growth
----------------------------------------------------------------------------------------------------------------------------------------------------------------
 Emergence-End Juvenile    13  30.1  19.9  25.0  13.6  24.00  340.9   37.1   36.7   49.6    0    0    7    0    0    8  0.000  0.000  0.002  0.005  0.000  0.000
 End Juvenil-Floral Init    8  28.8  19.3  24.0  15.3  24.00  341.0  100.4   32.8   32.8    0    0    0    0    0    6  0.000  0.000  0.000  0.001  0.000  0.000
 Floral Init-End Lf Grow   38  30.3  19.0  24.6  15.9  24.00  341.0   67.8  130.5  148.8    0    0   18    2    1   13  0.086  0.114  0.000  0.000  0.000  0.000
 End Lf Grth-Beg Grn Fil   10  31.5  18.5  25.0  18.4  24.00  341.1   25.6   28.1   44.4    0    0   10    2    0    2  0.430  0.520  0.000  0.000  0.000  0.000
 Grain Filling Phase       43  32.9  18.3  25.6  19.6  24.00  341.1   40.2   51.1  218.8    0    0   41   29   11   10  0.763  0.798  0.000  0.000  0.000  0.000


 Planting to Harvest      120  31.2  18.8  25.0  17.1  24.00  341.0  336.7  294.5  526.3    0    0   81   35   13   44  0.349  0.379  0.000  0.001  0.000  0.000
----------------------------------------------------------------------------------------------------------------------------------------------------------------


*Resource Productivity
 Growing season length: 120 days 

 Precipitation during growing season       336.7 mm[rain]
   Dry Matter Productivity                  2.61 kg[DM]/m3[rain]          =   26.1 kg[DM]/ha per mm[rain]
   Yield Productivity                       0.80 kg[grain yield]/m3[rain] =    8.0 kg[yield]/ha per mm[rain]

 Evapotranspiration during growing season  294.5 mm[ET]
   Dry Matter Productivity                  2.99 kg[DM]/m3[ET]            =   29.9 kg[DM]/ha per mm[ET]
   Yield Productivity                       0.92 kg[grain yield]/m3[ET]   =    9.2 kg[yield]/ha per mm[ET]

 Transpiration during growing season       141.3 mm[EP]
   Dry Matter Productivity                  6.22 kg[DM]/m3[EP]            =   62.2 kg[DM]/ha per mm[EP]
   Yield Productivity                       1.92 kg[grain yield]/m3[EP]   =   19.2 kg[yield]/ha per mm[EP]

 N applied during growing season            161. kg[N applied]/ha
   Dry Matter Productivity                  54.6 kg[DM]/kg[N applied]
   Yield Productivity                       16.8 kg[yield]/kg[N applied]

 N uptake during growing season              140 kg[N uptake]/ha
   Dry Matter Productivity                  62.8 kg[DM]/kg[N uptake]
   Yield Productivity                       19.4 kg[yield]/kg[N uptake]

--------------------------------------------------------------------------------------------------------------

                     Maize YIELD :     2710 kg/ha    [Dry weight] 

**************************************************************************************************************

*DSSAT Cropping System Model Ver. 4.6.1.000 -release      OCT 02, 2017; 13:17:30
                                                                                
*RUN   7        : P05/02                    MZCER046 ANBU1982    7              
 MODEL          : MZCER046 - Maize                                              
 EXPERIMENT     : ANBU1982 MZ  Analisis a침os de bajo rendimiento Buga          
 DATA PATH      : C:\DSSAT46\maize\                                             
 TREATMENT  7   : P05/02                    MZCER046                            
                                                                                
                                                                                
 CROP           : Maize            CULTIVAR : FNC3056          ECOTYPE :IB0001  
 STARTING DATE  : APR  2 1982                                                   
 PLANTING DATE  : MAY  2 1982        PLANTS/m2 :  6.2     ROW SPACING :  80.cm  
 WEATHER        : CUNI   1982                                                   
 SOIL           : CCBUGA2017     TEXTURE : CL    -   Suelo Buga MADR Fase I     
 SOIL INITIAL C : DEPTH: 90cm EXTR. H2O: 83.9mm  NO3:151.4kg/ha  NH4: 62.4kg/ha 
 WATER BALANCE  : RAINFED                                                       
 IRRIGATION     : NOT IRRIGATED                                                 
 NITROGEN BAL.  : SOIL-N & N-UPTAKE SIMULATION; NO N-FIXATION                   
 N-FERTILIZER   :      161 kg/ha IN     5 APPLICATIONS                          
 RESIDUE/MANURE : INITIAL :     0 kg/ha ;       0 kg/ha IN     0 APPLICATIONS   
 ENVIRONM. OPT. : DAYL=    0.00  SRAD=    0.00  TMAX=    0.00  TMIN=    0.00    
                  RAIN=    0.00  CO2 =    0.00  DEW =    0.00  WIND=    0.00    
 SIMULATION OPT : WATER   :Y  NITROGEN:Y  N-FIX:N  PHOSPH :N  PESTS  :N         
                  PHOTO   :C  ET      :R  INFIL:S  HYDROL :R  SOM    :G         
                  CO2 341ppm  NSWIT   :1  EVAP :S  SOIL   :2  STEMP  :D         
 MANAGEMENT OPT : PLANTING:R  IRRIG   :N  FERT :D  RESIDUE:R  HARVEST:M         
                  WEATHER :M  TILLAGE :N                                        
                                                                                
*SUMMARY OF SOIL AND GENETIC INPUT PARAMETERS                                   
                                                                                
   SOIL LOWER UPPER   SAT  EXTR  INIT   ROOT   BULK     pH    NO3    NH4    ORG 
  DEPTH LIMIT LIMIT    SW    SW    SW   DIST   DENS                          C  
   cm   cm3/cm3    cm3/cm3    cm3/cm3         g/cm3         ugN/g  ugN/g     %  
------------------------------------------------------------------------------- 
  0-  5 0.215 0.331 0.341 0.116 0.319   1.00   1.68   6.70  11.90   4.21   0.75 
  5- 15 0.215 0.331 0.341 0.116 0.319   1.00   1.68   6.70  11.90   4.21   0.75 
 15- 25 0.215 0.331 0.341 0.116 0.319   1.00   1.68   6.70  11.90   4.21   0.75 
 25- 35 0.181 0.291 0.364 0.110 0.331   0.50   1.61   7.20  12.15   4.32   0.53 
 35- 45 0.181 0.291 0.364 0.110 0.344   0.50   1.61   7.20  12.40   4.44   0.53 
 45- 67 0.096 0.169 0.404 0.073 0.290   0.27   1.51   7.00  10.67   4.47   0.05 
 67- 90 0.096 0.169 0.404 0.073 0.195   0.27   1.51   7.00   7.63   4.53   0.05 
                                                                                
TOT- 90  13.3  21.7  34.0   8.4  25.6  <--cm   -  kg/ha-->  151.4   62.4  51964 
SOIL ALBEDO    : 0.09      EVAPORATION LIMIT : 6.00         MIN. FACTOR  : 1.00 
RUNOFF CURVE # :76.00      DRAINAGE RATE     : 0.60         FERT. FACTOR : 1.00 
                                                                                
 Maize      CULTIVAR :CI0003-FNC3056            ECOTYPE :IB0001                 
 P1     : 233.00  P2     : 0.5000  P5     : 976.00                              
 G2     : 956.00  G3     :  7.500  PHINT  : 45.600                              


*SIMULATED CROP AND SOIL STATUS AT MAIN DEVELOPMENT STAGES

 RUN NO.     7     P05/02                  

        CROP GROWTH     BIOMASS         LEAF   CROP N     STRESS      STRESS                                           
   DATE  AGE STAGE        kg/ha    LAI   NUM  kg/ha  %   H2O  Nitr Phos1 Phos2  RSTG                                   
 ------  --- ----------   -----  -----  ----  ---  ---  ----  ----  ----  ----  ----                                   
  2 APR    0 Start Sim        0   0.00   0.0    0  0.0  0.00  0.00  0.00  0.00     7
  2 MAY    0 Sowing           0   0.00   0.0    0  0.0  0.00  0.00  0.00  0.00     8
  3 MAY    1 Germinate        0   0.00   0.0    0  0.0  0.00  0.00  0.00  0.00     9
  8 MAY    6 Emergence       25   0.00   2.0    1  4.4  0.00  0.01  0.00  0.00     1
 21 MAY   19 End Juveni      65   0.14   7.5    2  3.5  0.00  0.00  0.00  0.00     2
 29 MAY   27 Floral Ini     243   0.46  10.4    9  3.6  0.00  0.00  0.00  0.00     3
  5 JUL   64 75% Silkin    5466   2.76  21.8  118  2.2  0.19  0.00  0.00  0.00     4
 15 JUL   74 Beg Gr Fil    6716   2.21  21.8  118  1.8  0.52  0.00  0.00  0.00     5
 27 AUG  117 End Gr Fil    7993   0.41  21.8  118  1.5  0.82  0.00  0.00  0.00     6
 30 AUG  120 Maturity      7993   0.41  21.8  118  1.5  0.95  0.00  0.00  0.00    10
 30 AUG  120 Harvest       7993   0.41  21.8  118  1.5  0.00  0.00  0.00  0.00    10


*MAIN GROWTH AND DEVELOPMENT VARIABLES

@     VARIABLE                                         SIMULATED     MEASURED
      --------                                         ---------     --------
      Anthesis day (dap)                                      64          -99
      Physiological maturity day (dap)                       120          -99
      Yield at harvest maturity (kg [dm]/ha)                2460          -99
      Number at maturity (no/m2)                            2110          -99
      Unit wt at maturity (g [dm]/unit)                   0.1166          -99
      Number at maturity (no/unit)                         340.4          -99
      Tops weight at maturity (kg [dm]/ha)                  7993          -99
      By-product produced (stalk) at maturity (kg[dm]/ha    5589          -99
      Leaf area index, maximum                              3.37          -99
      Harvest index at maturity                            0.308          -99
      Grain N at maturity (kg/ha)                             46          -99
      Tops N at maturity (kg/ha)                             118          -99
      Stem N at maturity (kg/ha)                              73          -99
      Grain N at maturity (%)                                1.9          -99
      Tops weight at anthesis (kg [dm]/ha)                  5248          -99
      Tops N at anthesis (kg/ha)                             118          -99
      Leaf number per stem at maturity                     21.79          -99
      Emergence day (dap)                                      6          -99


*ENVIRONMENTAL AND STRESS FACTORS

 |-----Development Phase------|--------------------------------------Environment--------------------------------------|-----------------Stress-----------------|
                              |---------------Average--------------|-----Cumulative-----|--------Count of days--------|          (0=Min, 1=Max Stress)         |
                         Time  Temp  Temp  Temp Solar Photop                Evapo    Pot TMIN TMIN TMAX TMAX TMAX RAIN|----Water----|---Nitrogen--|-Phosphorus-|
                         Span   Max   Min  Mean   Rad  [day]    CO2   Rain  Trans     ET   <    <    >    >    >    >   Photo         Photo         Photo
                         days    邂    邂    邂 MJ/m2     hr    ppm     mm     mm     mm  0邂  2邂 30邂 32邂 34邂  0mm  synth Growth  synth Growth  synth Growth
----------------------------------------------------------------------------------------------------------------------------------------------------------------
 Emergence-End Juvenile    13  29.6  19.6  24.6  14.5  24.00  340.9   87.9   41.0   52.4    0    0    4    0    0    9  0.000  0.000  0.002  0.006  0.000  0.000
 End Juvenil-Floral Init    8  28.6  19.5  24.1  14.6  24.00  341.0   53.8   31.4   31.4    0    0    0    0    0    5  0.000  0.000  0.000  0.000  0.000  0.000
 Floral Init-End Lf Grow   37  30.6  18.9  24.8  16.3  24.00  341.0   61.9  117.2  148.7    0    0   22    3    1   11  0.146  0.187  0.000  0.000  0.000  0.000
 End Lf Grth-Beg Grn Fil   10  31.5  18.6  25.1  18.2  24.00  341.1   19.3   30.6   44.2    0    0    9    3    0    3  0.352  0.435  0.000  0.000  0.000  0.000
 Grain Filling Phase       43  33.2  18.3  25.7  20.0  24.00  341.1   35.2   46.8  224.5    0    0   42   31   14    8  0.788  0.820  0.000  0.000  0.000  0.000


 Planting to Harvest      120  31.5  18.8  25.1  17.5  23.99  341.0  272.2  289.1  542.2    0    0   83   40   18   40  0.379  0.411  0.000  0.001  0.000  0.000
----------------------------------------------------------------------------------------------------------------------------------------------------------------


*Resource Productivity
 Growing season length: 120 days 

 Precipitation during growing season       272.2 mm[rain]
   Dry Matter Productivity                  2.94 kg[DM]/m3[rain]          =   29.4 kg[DM]/ha per mm[rain]
   Yield Productivity                       0.90 kg[grain yield]/m3[rain] =    9.0 kg[yield]/ha per mm[rain]

 Evapotranspiration during growing season  289.1 mm[ET]
   Dry Matter Productivity                  2.76 kg[DM]/m3[ET]            =   27.6 kg[DM]/ha per mm[ET]
   Yield Productivity                       0.85 kg[grain yield]/m3[ET]   =    8.5 kg[yield]/ha per mm[ET]

 Transpiration during growing season       131.7 mm[EP]
   Dry Matter Productivity                  6.07 kg[DM]/m3[EP]            =   60.7 kg[DM]/ha per mm[EP]
   Yield Productivity                       1.87 kg[grain yield]/m3[EP]   =   18.7 kg[yield]/ha per mm[EP]

 N applied during growing season            161. kg[N applied]/ha
   Dry Matter Productivity                  49.6 kg[DM]/kg[N applied]
   Yield Productivity                       15.3 kg[yield]/kg[N applied]

 N uptake during growing season              129 kg[N uptake]/ha
   Dry Matter Productivity                  62.0 kg[DM]/kg[N uptake]
   Yield Productivity                       19.1 kg[yield]/kg[N uptake]

--------------------------------------------------------------------------------------------------------------

                     Maize YIELD :     2460 kg/ha    [Dry weight] 

**************************************************************************************************************

*DSSAT Cropping System Model Ver. 4.6.1.000 -release      OCT 02, 2017; 13:17:30
                                                                                
*RUN   8        : P05/07                    MZCER046 ANBU1982    8              
 MODEL          : MZCER046 - Maize                                              
 EXPERIMENT     : ANBU1982 MZ  Analisis a침os de bajo rendimiento Buga          
 DATA PATH      : C:\DSSAT46\maize\                                             
 TREATMENT  8   : P05/07                    MZCER046                            
                                                                                
                                                                                
 CROP           : Maize            CULTIVAR : FNC3056          ECOTYPE :IB0001  
 STARTING DATE  : APR  7 1982                                                   
 PLANTING DATE  : MAY  7 1982        PLANTS/m2 :  6.2     ROW SPACING :  80.cm  
 WEATHER        : CUNI   1982                                                   
 SOIL           : CCBUGA2017     TEXTURE : CL    -   Suelo Buga MADR Fase I     
 SOIL INITIAL C : DEPTH: 90cm EXTR. H2O: 83.9mm  NO3:151.4kg/ha  NH4: 62.4kg/ha 
 WATER BALANCE  : RAINFED                                                       
 IRRIGATION     : NOT IRRIGATED                                                 
 NITROGEN BAL.  : SOIL-N & N-UPTAKE SIMULATION; NO N-FIXATION                   
 N-FERTILIZER   :      161 kg/ha IN     5 APPLICATIONS                          
 RESIDUE/MANURE : INITIAL :     0 kg/ha ;       0 kg/ha IN     0 APPLICATIONS   
 ENVIRONM. OPT. : DAYL=    0.00  SRAD=    0.00  TMAX=    0.00  TMIN=    0.00    
                  RAIN=    0.00  CO2 =    0.00  DEW =    0.00  WIND=    0.00    
 SIMULATION OPT : WATER   :Y  NITROGEN:Y  N-FIX:N  PHOSPH :N  PESTS  :N         
                  PHOTO   :C  ET      :R  INFIL:S  HYDROL :R  SOM    :G         
                  CO2 341ppm  NSWIT   :1  EVAP :S  SOIL   :2  STEMP  :D         
 MANAGEMENT OPT : PLANTING:R  IRRIG   :N  FERT :D  RESIDUE:R  HARVEST:M         
                  WEATHER :M  TILLAGE :N                                        
                                                                                
*SUMMARY OF SOIL AND GENETIC INPUT PARAMETERS                                   
                                                                                
   SOIL LOWER UPPER   SAT  EXTR  INIT   ROOT   BULK     pH    NO3    NH4    ORG 
  DEPTH LIMIT LIMIT    SW    SW    SW   DIST   DENS                          C  
   cm   cm3/cm3    cm3/cm3    cm3/cm3         g/cm3         ugN/g  ugN/g     %  
------------------------------------------------------------------------------- 
  0-  5 0.215 0.331 0.341 0.116 0.319   1.00   1.68   6.70  11.90   4.21   0.75 
  5- 15 0.215 0.331 0.341 0.116 0.319   1.00   1.68   6.70  11.90   4.21   0.75 
 15- 25 0.215 0.331 0.341 0.116 0.319   1.00   1.68   6.70  11.90   4.21   0.75 
 25- 35 0.181 0.291 0.364 0.110 0.331   0.50   1.61   7.20  12.15   4.32   0.53 
 35- 45 0.181 0.291 0.364 0.110 0.344   0.50   1.61   7.20  12.40   4.44   0.53 
 45- 67 0.096 0.169 0.404 0.073 0.290   0.27   1.51   7.00  10.67   4.47   0.05 
 67- 90 0.096 0.169 0.404 0.073 0.195   0.27   1.51   7.00   7.63   4.53   0.05 
                                                                                
TOT- 90  13.3  21.7  34.0   8.4  25.6  <--cm   -  kg/ha-->  151.4   62.4  51964 
SOIL ALBEDO    : 0.09      EVAPORATION LIMIT : 6.00         MIN. FACTOR  : 1.00 
RUNOFF CURVE # :76.00      DRAINAGE RATE     : 0.60         FERT. FACTOR : 1.00 
                                                                                
 Maize      CULTIVAR :CI0003-FNC3056            ECOTYPE :IB0001                 
 P1     : 233.00  P2     : 0.5000  P5     : 976.00                              
 G2     : 956.00  G3     :  7.500  PHINT  : 45.600                              


*SIMULATED CROP AND SOIL STATUS AT MAIN DEVELOPMENT STAGES

 RUN NO.     8     P05/07                  

        CROP GROWTH     BIOMASS         LEAF   CROP N     STRESS      STRESS                                           
   DATE  AGE STAGE        kg/ha    LAI   NUM  kg/ha  %   H2O  Nitr Phos1 Phos2  RSTG                                   
 ------  --- ----------   -----  -----  ----  ---  ---  ----  ----  ----  ----  ----                                   
  7 APR    0 Start Sim        0   0.00   0.0    0  0.0  0.00  0.00  0.00  0.00     7
  7 MAY    0 Sowing           0   0.00   0.0    0  0.0  0.00  0.00  0.00  0.00     8
  8 MAY    1 Germinate        0   0.00   0.0    0  0.0  0.00  0.00  0.00  0.00     9
 13 MAY    6 Emergence       25   0.00   2.1    1  4.4  0.00  0.01  0.00  0.00     1
 27 MAY   20 End Juveni      80   0.17   7.8    3  3.4  0.00  0.00  0.00  0.00     2
  4 JUN   28 Floral Ini     339   0.60  10.8   12  3.6  0.00  0.00  0.00  0.00     3
 12 JUL   66 75% Silkin    6064   2.99  22.6  127  2.1  0.23  0.00  0.00  0.00     4
 22 JUL   76 Beg Gr Fil    6137   1.97  22.6  127  2.1  0.88  0.00  0.00  0.00     5
  2 SEP  118 End Gr Fil    7222   0.39  22.6  127  1.8  0.80  0.00  0.00  0.00     6
  5 SEP  121 Maturity      7222   0.39  22.6  127  1.8  1.00  0.00  0.00  0.00    10
[...]
 NITROGEN BAL.  : SOIL-N & N-UPTAKE SIMULATION; NO N-FIXATION                   
 N-FERTILIZER   :      161 kg/ha IN     5 APPLICATIONS                          
 RESIDUE/MANURE : INITIAL :     0 kg/ha ;       0 kg/ha IN     0 APPLICATIONS   
 ENVIRONM. OPT. : DAYL=    0.00  SRAD=    0.00  TMAX=    0.00  TMIN=    0.00    
                  RAIN=    0.00  CO2 =    0.00  DEW =    0.00  WIND=    0.00    
 SIMULATION OPT : WATER   :Y  NITROGEN:Y  N-FIX:N  PHOSPH :N  PESTS  :N         
                  PHOTO   :C  ET      :R  INFIL:S  HYDROL :R  SOM    :G         
                  CO2 341ppm  NSWIT   :1  EVAP :S  SOIL   :2  STEMP  :D         
 MANAGEMENT OPT : PLANTING:R  IRRIG   :N  FERT :D  RESIDUE:R  HARVEST:M         
                  WEATHER :M  TILLAGE :N                                        
                                                                                
*SUMMARY OF SOIL AND GENETIC INPUT PARAMETERS                                   
                                                                                
   SOIL LOWER UPPER   SAT  EXTR  INIT   ROOT   BULK     pH    NO3    NH4    ORG 
  DEPTH LIMIT LIMIT    SW    SW    SW   DIST   DENS                          C  
   cm   cm3/cm3    cm3/cm3    cm3/cm3         g/cm3         ugN/g  ugN/g     %  
------------------------------------------------------------------------------- 
  0-  5 0.215 0.331 0.341 0.116 0.319   1.00   1.68   6.70  11.90   4.21   0.75 
  5- 15 0.215 0.331 0.341 0.116 0.319   1.00   1.68   6.70  11.90   4.21   0.75 
 15- 25 0.215 0.331 0.341 0.116 0.319   1.00   1.68   6.70  11.90   4.21   0.75 
 25- 35 0.181 0.291 0.364 0.110 0.331   0.50   1.61   7.20  12.15   4.32   0.53 
 35- 45 0.181 0.291 0.364 0.110 0.344   0.50   1.61   7.20  12.40   4.44   0.53 
 45- 67 0.096 0.169 0.404 0.073 0.290   0.27   1.51   7.00  10.67   4.47   0.05 
 67- 90 0.096 0.169 0.404 0.073 0.195   0.27   1.51   7.00   7.63   4.53   0.05 
                                                                                
TOT- 90  13.3  21.7  34.0   8.4  25.6  <--cm   -  kg/ha-->  151.4   62.4  51964 
SOIL ALBEDO    : 0.09      EVAPORATION LIMIT : 6.00         MIN. FACTOR  : 1.00 
RUNOFF CURVE # :76.00      DRAINAGE RATE     : 0.60         FERT. FACTOR : 1.00 
                                                                                
 Maize      CULTIVAR :CI0003-FNC3056            ECOTYPE :IB0001                 
 P1     : 233.00  P2     : 0.5000  P5     : 976.00                              
 G2     : 956.00  G3     :  7.500  PHINT  : 45.600                              


*SIMULATED CROP AND SOIL STATUS AT MAIN DEVELOPMENT STAGES

 RUN NO.    35     P12/14                  

        CROP GROWTH     BIOMASS         LEAF   CROP N     STRESS      STRESS                                           
   DATE  AGE STAGE        kg/ha    LAI   NUM  kg/ha  %   H2O  Nitr Phos1 Phos2  RSTG                                   
 ------  --- ----------   -----  -----  ----  ---  ---  ----  ----  ----  ----  ----                                   
 14 NOV    0 Start Sim        0   0.00   0.0    0  0.0  0.00  0.00  0.00  0.00     7
 14 DEC    0 Sowing           0   0.00   0.0    0  0.0  0.00  0.00  0.00  0.00     8
 15 DEC    1 Germinate        0   0.00   0.0    0  0.0  0.00  0.00  0.00  0.00     9
 20 DEC    6 Emergence       25   0.00   2.1    1  4.4  0.00  0.01  0.00  0.00     1
  2 JAN   19 End Juveni      98   0.21   7.6    3  3.3  0.00  0.00  0.00  0.00     2
  6 JAN   23 Floral Ini     213   0.41   9.2    8  3.7  0.00  0.00  0.00  0.00     3
  5 FEB   53 75% Silkin    2607   1.29  19.4   61  2.3  0.49  0.00  0.00  0.00     4
 14 FEB   62 Beg Gr Fil    2735   0.90  19.4   61  2.2  0.85  0.00  0.00  0.00     5
 25 MAR  101 End Gr Fil    3210   0.18  19.4   61  1.9  0.87  0.00  0.00  0.00     6
 28 MAR  104 Maturity      3210   0.18  19.4   61  1.9  0.00  0.00  0.00  0.00    10
 28 MAR  104 Harvest       3210   0.18  19.4   61  1.9  0.00  0.00  0.00  0.00    10


*MAIN GROWTH AND DEVELOPMENT VARIABLES

@     VARIABLE                                         SIMULATED     MEASURED
      --------                                         ---------     --------
      Anthesis day (dap)                                      53          -99
      Physiological maturity day (dap)                       104          -99
      Yield at harvest maturity (kg [dm]/ha)                 869          -99
      Number at maturity (no/m2)                             640          -99
      Unit wt at maturity (g [dm]/unit)                   0.1358          -99
      Number at maturity (no/unit)                         112.0          -99
      Tops weight at maturity (kg [dm]/ha)                  3210          -99
      By-product produced (stalk) at maturity (kg[dm]/ha    2377          -99
      Leaf area index, maximum                              1.72          -99
      Harvest index at maturity                            0.271          -99
      Grain N at maturity (kg/ha)                             16          -99
      Tops N at maturity (kg/ha)                              61          -99
      Stem N at maturity (kg/ha)                              43          -99
      Grain N at maturity (%)                                1.9          -99
      Tops weight at anthesis (kg [dm]/ha)                  2595          -99
      Tops N at anthesis (kg/ha)                              61          -99
      Leaf number per stem at maturity                     19.38          -99
      Emergence day (dap)                                      6          -99


*ENVIRONMENTAL AND STRESS FACTORS

 |-----Development Phase------|--------------------------------------Environment--------------------------------------|-----------------Stress-----------------|
                              |---------------Average--------------|-----Cumulative-----|--------Count of days--------|          (0=Min, 1=Max Stress)         |
                         Time  Temp  Temp  Temp Solar Photop                Evapo    Pot TMIN TMIN TMAX TMAX TMAX RAIN|----Water----|---Nitrogen--|-Phosphorus-|
                         Span   Max   Min  Mean   Rad  [day]    CO2   Rain  Trans     ET   <    <    >    >    >    >   Photo         Photo         Photo
                         days    邂    邂    邂 MJ/m2     hr    ppm     mm     mm     mm  0邂  2邂 30邂 32邂 34邂  0mm  synth Growth  synth Growth  synth Growth
----------------------------------------------------------------------------------------------------------------------------------------------------------------
 Emergence-End Juvenile    13  30.6  18.6  24.6  17.3   0.00  341.6    2.9   13.9   62.1    0    0    9    3    0    3  0.000  0.000  0.002  0.005  0.000  0.000
 End Juvenil-Floral Init    4  31.3  19.9  25.6  11.7   0.00  341.6    1.2    4.2   12.7    0    0    4    1    0    1  0.000  0.000  0.001  0.001  0.000  0.000
 Floral Init-End Lf Grow   30  33.8  20.4  27.1  17.3   0.00  341.7    4.2   56.3  136.1    0    0   29   25   17    5  0.349  0.467  0.000  0.000  0.000  0.000
 End Lf Grth-Beg Grn Fil    9  32.8  20.5  26.7  16.9   0.00  341.8   15.0   13.2   39.8    0    0    9    6    0    1  0.756  0.838  0.000  0.000  0.000  0.000
 Grain Filling Phase       39  33.9  21.1  27.5  16.2   5.17  342.0   39.1   32.6  177.2    0    0   37   34   22    8  0.839  0.893  0.000  0.000  0.000  0.000


 Planting to Harvest      104  32.9  20.3  26.6  16.6   2.32  341.8  117.5  139.7  469.4    0    0   92   69   39   21  0.481  0.542  0.000  0.001  0.000  0.000
----------------------------------------------------------------------------------------------------------------------------------------------------------------


*Resource Productivity
 Growing season length: 104 days 

 Precipitation during growing season       117.5 mm[rain]
   Dry Matter Productivity                  2.73 kg[DM]/m3[rain]          =   27.3 kg[DM]/ha per mm[rain]
   Yield Productivity                       0.74 kg[grain yield]/m3[rain] =    7.4 kg[yield]/ha per mm[rain]

 Evapotranspiration during growing season  139.7 mm[ET]
   Dry Matter Productivity                  2.30 kg[DM]/m3[ET]            =   23.0 kg[DM]/ha per mm[ET]
   Yield Productivity                       0.62 kg[grain yield]/m3[ET]   =    6.2 kg[yield]/ha per mm[ET]

 Transpiration during growing season        63.9 mm[EP]
   Dry Matter Productivity                  5.02 kg[DM]/m3[EP]            =   50.2 kg[DM]/ha per mm[EP]
   Yield Productivity                       1.36 kg[grain yield]/m3[EP]   =   13.6 kg[yield]/ha per mm[EP]

 N applied during growing season            161. kg[N applied]/ha
   Dry Matter Productivity                  19.9 kg[DM]/kg[N applied]
   Yield Productivity                        5.4 kg[yield]/kg[N applied]

 N uptake during growing season               67 kg[N uptake]/ha
   Dry Matter Productivity                  47.9 kg[DM]/kg[N uptake]
   Yield Productivity                       13.0 kg[yield]/kg[N uptake]

--------------------------------------------------------------------------------------------------------------

                     Maize YIELD :      869 kg/ha    [Dry weight] 

**************************************************************************************************************

*DSSAT Cropping System Model Ver. 4.6.1.000 -release      OCT 02, 2017; 13:17:34
                                                                                
*RUN  36        : P12/19                    MZCER046 ANBU1982   36              
 MODEL          : MZCER046 - Maize                                              
 EXPERIMENT     : ANBU1982 MZ  Analisis a침os de bajo rendimiento Buga          
 DATA PATH      : C:\DSSAT46\maize\                                             
 TREATMENT 36   : P12/19                    MZCER046                            
                                                                                
                                                                                
 CROP           : Maize            CULTIVAR : FNC3056          ECOTYPE :IB0001  
 STARTING DATE  : NOV 19 1982                                                   
 PLANTING DATE  : DEC 19 1982        PLANTS/m2 :  6.2     ROW SPACING :  80.cm  
 WEATHER        : CUNI   1982                                                   
 SOIL           : CCBUGA2017     TEXTURE : CL    -   Suelo Buga MADR Fase I     
 SOIL INITIAL C : DEPTH: 90cm EXTR. H2O: 83.9mm  NO3:151.4kg/ha  NH4: 62.4kg/ha 
 WATER BALANCE  : RAINFED                                                       
 IRRIGATION     : NOT IRRIGATED                                                 
 NITROGEN BAL.  : SOIL-N & N-UPTAKE SIMULATION; NO N-FIXATION                   
 N-FERTILIZER   :      161 kg/ha IN     5 APPLICATIONS                          
 RESIDUE/MANURE : INITIAL :     0 kg/ha ;       0 kg/ha IN     0 APPLICATIONS   
 ENVIRONM. OPT. : DAYL=    0.00  SRAD=    0.00  TMAX=    0.00  TMIN=    0.00    
                  RAIN=    0.00  CO2 =    0.00  DEW =    0.00  WIND=    0.00    
 SIMULATION OPT : WATER   :Y  NITROGEN:Y  N-FIX:N  PHOSPH :N  PESTS  :N         
                  PHOTO   :C  ET      :R  INFIL:S  HYDROL :R  SOM    :G         
                  CO2 341ppm  NSWIT   :1  EVAP :S  SOIL   :2  STEMP  :D         
 MANAGEMENT OPT : PLANTING:R  IRRIG   :N  FERT :D  RESIDUE:R  HARVEST:M         
                  WEATHER :M  TILLAGE :N                                        
                                                                                
*SUMMARY OF SOIL AND GENETIC INPUT PARAMETERS                                   
                                                                                
   SOIL LOWER UPPER   SAT  EXTR  INIT   ROOT   BULK     pH    NO3    NH4    ORG 
  DEPTH LIMIT LIMIT    SW    SW    SW   DIST   DENS                          C  
   cm   cm3/cm3    cm3/cm3    cm3/cm3         g/cm3         ugN/g  ugN/g     %  
------------------------------------------------------------------------------- 
  0-  5 0.215 0.331 0.341 0.116 0.319   1.00   1.68   6.70  11.90   4.21   0.75 
  5- 15 0.215 0.331 0.341 0.116 0.319   1.00   1.68   6.70  11.90   4.21   0.75 
 15- 25 0.215 0.331 0.341 0.116 0.319   1.00   1.68   6.70  11.90   4.21   0.75 
 25- 35 0.181 0.291 0.364 0.110 0.331   0.50   1.61   7.20  12.15   4.32   0.53 
 35- 45 0.181 0.291 0.364 0.110 0.344   0.50   1.61   7.20  12.40   4.44   0.53 
 45- 67 0.096 0.169 0.404 0.073 0.290   0.27   1.51   7.00  10.67   4.47   0.05 
 67- 90 0.096 0.169 0.404 0.073 0.195   0.27   1.51   7.00   7.63   4.53   0.05 
                                                                                
TOT- 90  13.3  21.7  34.0   8.4  25.6  <--cm   -  kg/ha-->  151.4   62.4  51964 
SOIL ALBEDO    : 0.09      EVAPORATION LIMIT : 6.00         MIN. FACTOR  : 1.00 
RUNOFF CURVE # :76.00      DRAINAGE RATE     : 0.60         FERT. FACTOR : 1.00 
                                                                                
 Maize      CULTIVAR :CI0003-FNC3056            ECOTYPE :IB0001                 
 P1     : 233.00  P2     : 0.5000  P5     : 976.00                              
 G2     : 956.00  G3     :  7.500  PHINT  : 45.600                              


*SIMULATED CROP AND SOIL STATUS AT MAIN DEVELOPMENT STAGES

 RUN NO.    36     P12/19                  

        CROP GROWTH     BIOMASS         LEAF   CROP N     STRESS      STRESS                                           
   DATE  AGE STAGE        kg/ha    LAI   NUM  kg/ha  %   H2O  Nitr Phos1 Phos2  RSTG                                   
 ------  --- ----------   -----  -----  ----  ---  ---  ----  ----  ----  ----  ----                                   
 19 NOV    0 Start Sim        0   0.00   0.0    0  0.0  0.00  0.00  0.00  0.00     7
 19 DEC    0 Sowing           0   0.00   0.0    0  0.0  0.00  0.00  0.00  0.00     8
 20 DEC    1 Germinate        0   0.00   0.0    0  0.0  0.00  0.00  0.00  0.00     9
 25 DEC    6 Emergence       25   0.00   2.1    1  4.4  0.00  0.01  0.00  0.00     1
  7 JAN   19 End Juveni     105   0.22   7.7    3  3.3  0.00  0.00  0.00  0.00     2
 11 JAN   23 Floral Ini     256   0.48   9.4    9  3.7  0.00  0.00  0.00  0.00     3
 10 FEB   53 75% Silkin    2603   1.34  20.0   60  2.3  0.51  0.00  0.00  0.00     4
 19 FEB   62 Beg Gr Fil    2660   0.92  20.0   60  2.3  0.89  0.00  0.00  0.00     5
 31 MAR  102 End Gr Fil    3339   0.22  20.0   60  1.8  0.74  0.00  0.00  0.00     6
  2 APR  104 Maturity      3339   0.22  20.0   60  1.8  0.00  0.00  0.00  0.00    10
  2 APR  104 Harvest       3339   0.22  20.0   60  1.8  0.00  0.00  0.00  0.00    10


*MAIN GROWTH AND DEVELOPMENT VARIABLES

@     VARIABLE                                         SIMULATED     MEASURED
      --------                                         ---------     --------
      Anthesis day (dap)                                      53          -99
      Physiological maturity day (dap)                       104          -99
      Yield at harvest maturity (kg [dm]/ha)                 964          -99
      Number at maturity (no/m2)                             575          -99
      Unit wt at maturity (g [dm]/unit)                   0.1676          -99
      Number at maturity (no/unit)                         103.4          -99
      Tops weight at maturity (kg [dm]/ha)                  3339          -99
      By-product produced (stalk) at maturity (kg[dm]/ha    2410          -99
      Leaf area index, maximum                              1.80          -99
      Harvest index at maturity                            0.289          -99
      Grain N at maturity (kg/ha)                             18          -99
      Tops N at maturity (kg/ha)                              60          -99
      Stem N at maturity (kg/ha)                              40          -99
      Grain N at maturity (%)                                1.8          -99
      Tops weight at anthesis (kg [dm]/ha)                  2571          -99
      Tops N at anthesis (kg/ha)                              60          -99
      Leaf number per stem at maturity                     20.00          -99
      Emergence day (dap)                                      6          -99


*ENVIRONMENTAL AND STRESS FACTORS

 |-----Development Phase------|--------------------------------------Environment--------------------------------------|-----------------Stress-----------------|
                              |---------------Average--------------|-----Cumulative-----|--------Count of days--------|          (0=Min, 1=Max Stress)         |
                         Time  Temp  Temp  Temp Solar Photop                Evapo    Pot TMIN TMIN TMAX TMAX TMAX RAIN|----Water----|---Nitrogen--|-Phosphorus-|
                         Span   Max   Min  Mean   Rad  [day]    CO2   Rain  Trans     ET   <    <    >    >    >    >   Photo         Photo         Photo
                         days    邂    邂    邂 MJ/m2     hr    ppm     mm     mm     mm  0邂  2邂 30邂 32邂 34邂  0mm  synth Growth  synth Growth  synth Growth
----------------------------------------------------------------------------------------------------------------------------------------------------------------
 Emergence-End Juvenile    13  30.8  18.6  24.7  15.5   0.00  341.6    3.4   11.1   55.4    0    0   10    4    0    2  0.000  0.000  0.002  0.005  0.000  0.000
 End Juvenil-Floral Init    4  33.5  19.9  26.7  18.2   0.00  341.6    0.0    5.3   20.3    0    0    4    3    2    0  0.000  0.003  0.001  0.003  0.000  0.000
 Floral Init-End Lf Grow   30  33.7  20.6  27.1  16.6   0.00  341.7   19.2   59.0  130.9    0    0   29   24   15    6  0.341  0.479  0.000  0.000  0.000  0.000
 End Lf Grth-Beg Grn Fil    9  34.0  20.0  27.0  18.6   0.00  341.9    0.0   11.5   44.0    0    0    9    9    4    0  0.819  0.880  0.000  0.000  0.000  0.000
 Grain Filling Phase       40  33.4  21.2  27.3  16.2   7.11  342.0   88.1   48.0  182.0    0    0   37   30   18   11  0.725  0.767  0.000  0.000  0.000  0.000


 Planting to Harvest      104  33.1  20.4  26.7  16.7   3.03  341.8  111.4  145.8  475.2    0    0   95   72   39   21  0.448  0.510  0.000  0.001  0.000  0.000
----------------------------------------------------------------------------------------------------------------------------------------------------------------


*Resource Productivity
 Growing season length: 104 days 

 Precipitation during growing season       111.4 mm[rain]
   Dry Matter Productivity                  3.00 kg[DM]/m3[rain]          =   30.0 kg[DM]/ha per mm[rain]
   Yield Productivity                       0.87 kg[grain yield]/m3[rain] =    8.7 kg[yield]/ha per mm[rain]

 Evapotranspiration during growing season  145.8 mm[ET]
   Dry Matter Productivity                  2.29 kg[DM]/m3[ET]            =   22.9 kg[DM]/ha per mm[ET]
   Yield Productivity                       0.66 kg[grain yield]/m3[ET]   =    6.6 kg[yield]/ha per mm[ET]

 Transpiration during growing season        68.4 mm[EP]
   Dry Matter Productivity                  4.88 kg[DM]/m3[EP]            =   48.8 kg[DM]/ha per mm[EP]
   Yield Productivity                       1.41 kg[grain yield]/m3[EP]   =   14.1 kg[yield]/ha per mm[EP]

 N applied during growing season            161. kg[N applied]/ha
   Dry Matter Productivity                  20.7 kg[DM]/kg[N applied]
   Yield Productivity                        6.0 kg[yield]/kg[N applied]

 N uptake during growing season               66 kg[N uptake]/ha
   Dry Matter Productivity                  50.6 kg[DM]/kg[N uptake]
   Yield Productivity                       14.6 kg[yield]/kg[N uptake]

--------------------------------------------------------------------------------------------------------------

                     Maize YIELD :      964 kg/ha    [Dry weight] 

**************************************************************************************************************
