*SIMULATION OVERVIEW FILE

*DSSAT Cropping System Model Ver. 4.6.1.000 -release      OCT 24, 2017; 10:40:59
                                                                                
*RUN   1        : P04/02                    MZCER046 ANBU1997    1              
 MODEL          : MZCER046 - Maize                                              
 EXPERIMENT     : ANBU1997 MZ  Analisis a침os de bajo rendimiento Buga          
 DATA PATH      : C:\DSSAT46\maize\                                             
 TREATMENT  1   : P04/02                    MZCER046                            
                                                                                
                                                                                
 CROP           : Maize            CULTIVAR : DK234            ECOTYPE :IB0001  
 STARTING DATE  : MAR  3 1997                                                   
 PLANTING DATE  : APR  2 1997        PLANTS/m2 :  6.2     ROW SPACING :  80.cm  
 WEATHER        : CUNI   1997                                                   
 SOIL           : CCBUGA2017     TEXTURE : CL    -   Suelo Buga MADR Fase I     
 SOIL INITIAL C : DEPTH: 90cm EXTR. H2O: 83.9mm  NO3:  0.0kg/ha  NH4:  0.0kg/ha 
 WATER BALANCE  : RAINFED                                                       
 IRRIGATION     : NOT IRRIGATED                                                 
 NITROGEN BAL.  : SOIL-N & N-UPTAKE SIMULATION; NO N-FIXATION                   
 N-FERTILIZER   :      161 kg/ha IN     5 APPLICATIONS                          
 RESIDUE/MANURE : INITIAL :     0 kg/ha ;       0 kg/ha IN     0 APPLICATIONS   
 ENVIRONM. OPT. : DAYL=    0.00  SRAD=    0.00  TMAX=    0.00  TMIN=    0.00    
                  RAIN=    0.00  CO2 =    0.00  DEW =    0.00  WIND=    0.00    
 SIMULATION OPT : WATER   :Y  NITROGEN:Y  N-FIX:N  PHOSPH :N  PESTS  :N         
                  PHOTO   :C  ET      :R  INFIL:S  HYDROL :R  SOM    :G         
                  CO2 363ppm  NSWIT   :1  EVAP :S  SOIL   :2  STEMP  :D         
 MANAGEMENT OPT : PLANTING:R  IRRIG   :N  FERT :D  RESIDUE:R  HARVEST:M         
                  WEATHER :M  TILLAGE :N                                        
                                                                                
*SUMMARY OF SOIL AND GENETIC INPUT PARAMETERS                                   
                                                                                
   SOIL LOWER UPPER   SAT  EXTR  INIT   ROOT   BULK     pH    NO3    NH4    ORG 
  DEPTH LIMIT LIMIT    SW    SW    SW   DIST   DENS                          C  
   cm   cm3/cm3    cm3/cm3    cm3/cm3         g/cm3         ugN/g  ugN/g     %  
------------------------------------------------------------------------------- 
  0-  5 0.215 0.331 0.341 0.116 0.331   1.00   1.68   6.70   0.00   0.00   0.75 
  5- 15 0.215 0.331 0.341 0.116 0.331   1.00   1.68   6.70   0.00   0.00   0.75 
 15- 25 0.215 0.331 0.341 0.116 0.331   1.00   1.68   6.70   0.00   0.00   0.75 
 25- 35 0.181 0.291 0.364 0.110 0.291   0.50   1.61   7.20   0.00   0.00   0.53 
 35- 45 0.181 0.291 0.364 0.110 0.291   0.50   1.61   7.20   0.00   0.00   0.53 
 45- 67 0.096 0.169 0.404 0.073 0.169   0.27   1.51   7.00   0.00   0.00   0.05 
 67- 90 0.096 0.169 0.404 0.073 0.169   0.27   1.51   7.00   0.00   0.00   0.05 
                                                                                
TOT- 90  13.3  21.7  34.0   8.4  21.7  <--cm   -  kg/ha-->    0.0    0.0  51964 
SOIL ALBEDO    : 0.09      EVAPORATION LIMIT : 6.00         MIN. FACTOR  : 1.00 
RUNOFF CURVE # :76.00      DRAINAGE RATE     : 0.60         FERT. FACTOR : 1.00 
                                                                                
 Maize      CULTIVAR :CI0002-DK234              ECOTYPE :IB0001                 
 P1     : 300.00  P2     : 0.4000  P5     :1075.00                              
 G2     : 890.00  G3     :  7.750  PHINT  : 40.000                              


*SIMULATED CROP AND SOIL STATUS AT MAIN DEVELOPMENT STAGES

 RUN NO.     1     P04/02                  

        CROP GROWTH     BIOMASS         LEAF   CROP N     STRESS      STRESS                                           
   DATE  AGE STAGE        kg/ha    LAI   NUM  kg/ha  %   H2O  Nitr Phos1 Phos2  RSTG                                   
 ------  --- ----------   -----  -----  ----  ---  ---  ----  ----  ----  ----  ----                                   
  3 MAR    0 Start Sim        0   0.00   0.0    0  0.0  0.00  0.00  0.00  0.00     7
  2 APR    0 Sowing           0   0.00   0.0    0  0.0  0.00  0.00  0.00  0.00     8
  3 APR    1 Germinate        0   0.00   0.0    0  0.0  0.00  0.00  0.00  0.00     9
  8 APR    6 Emergence       25   0.00   2.2    1  4.4  0.00  0.01  0.00  0.00     1
 25 APR   23 End Juveni     259   0.49  10.2    9  3.6  0.00  0.00  0.00  0.00     2
  2 MAY   30 Floral Ini     821   1.24  13.1   29  3.5  0.00  0.00  0.00  0.00     3
 12 JUN   71 75% Silkin    8239   4.34  27.1  170  2.1  0.01  0.06  0.00  0.00     4
 22 JUN   81 Beg Gr Fil   10324   4.24  27.1  170  1.6  0.00  0.00  0.00  0.00     5
 11 AUG  131 End Gr Fil   16660   1.29  27.1  177  1.1  0.52  0.09  0.00  0.00     6
 14 AUG  134 Maturity     16660   1.29  27.1  177  1.1  0.88  0.47  0.00  0.00    10
 14 AUG  134 Harvest      16660   1.29  27.1  177  1.1  0.00  0.00  0.00  0.00    10


*MAIN GROWTH AND DEVELOPMENT VARIABLES

@     VARIABLE                                         SIMULATED     MEASURED
      --------                                         ---------     --------
      Anthesis day (dap)                                      71          -99
      Physiological maturity day (dap)                       134          -99
      Yield at harvest maturity (kg [dm]/ha)                7730          -99
      Number at maturity (no/m2)                            2762          -99
      Unit wt at maturity (g [dm]/unit)                   0.2799          -99
      Number at maturity (no/unit)                         445.4          -99
      Tops weight at maturity (kg [dm]/ha)                 16660          -99
      By-product produced (stalk) at maturity (kg[dm]/ha    9013          -99
      Leaf area index, maximum                              4.36          -99
      Harvest index at maturity                            0.464          -99
      Grain N at maturity (kg/ha)                            131          -99
      Tops N at maturity (kg/ha)                             177          -99
      Stem N at maturity (kg/ha)                              46          -99
      Grain N at maturity (%)                                1.7          -99
      Tops weight at anthesis (kg [dm]/ha)                  8023          -99
      Tops N at anthesis (kg/ha)                             168          -99
      Leaf number per stem at maturity                     27.14          -99
      Emergence day (dap)                                      6          -99


*ENVIRONMENTAL AND STRESS FACTORS

 |-----Development Phase------|--------------------------------------Environment--------------------------------------|-----------------Stress-----------------|
                              |---------------Average--------------|-----Cumulative-----|--------Count of days--------|          (0=Min, 1=Max Stress)         |
                         Time  Temp  Temp  Temp Solar Photop                Evapo    Pot TMIN TMIN TMAX TMAX TMAX RAIN|----Water----|---Nitrogen--|-Phosphorus-|
                         Span   Max   Min  Mean   Rad  [day]    CO2   Rain  Trans     ET   <    <    >    >    >    >   Photo         Photo         Photo
                         days    邂    邂    邂 MJ/m2     hr    ppm     mm     mm     mm  0邂  2邂 30邂 32邂 34邂  0mm  synth Growth  synth Growth  synth Growth
----------------------------------------------------------------------------------------------------------------------------------------------------------------
 Emergence-End Juvenile    17  30.5  19.7  25.1  14.9  22.48  363.4   79.0   46.2   70.4    0    0   11    5    0    8  0.000  0.000  0.002  0.004  0.000  0.000
 End Juvenil-Floral Init    7  30.3  18.7  24.5  16.9  24.00  363.4   33.0   26.1   30.8    0    0    3    2    0    2  0.000  0.000  0.001  0.001  0.000  0.000
 Floral Init-End Lf Grow   41  29.7  18.8  24.3  14.4  24.00  363.5  201.0  135.9  140.7    0    0   20    5    0   16  0.004  0.013  0.026  0.064  0.000  0.000
 End Lf Grth-Beg Grn Fil   10  30.0  18.8  24.4  14.8  24.00  363.6   10.0   34.6   34.7    0    0    5    0    0    2  0.000  0.000  0.000  0.000  0.000  0.000
 Grain Filling Phase       50  32.3  18.1  25.2  17.9  24.00  363.7   78.0  125.7  219.3    0    0   45   23   10    9  0.442  0.501  0.030  0.076  0.000  0.000


 Planting to Harvest      134  31.0  18.7  24.8  16.1  23.49  363.6  412.0  378.0  538.7    0    0   91   41   10   39  0.184  0.210  0.024  0.059  0.000  0.000
----------------------------------------------------------------------------------------------------------------------------------------------------------------


*Resource Productivity
 Growing season length: 134 days 

 Precipitation during growing season       412.0 mm[rain]
   Dry Matter Productivity                  4.04 kg[DM]/m3[rain]          =   40.4 kg[DM]/ha per mm[rain]
   Yield Productivity                       1.88 kg[grain yield]/m3[rain] =   18.8 kg[yield]/ha per mm[rain]

 Evapotranspiration during growing season  378.0 mm[ET]
   Dry Matter Productivity                  4.41 kg[DM]/m3[ET]            =   44.1 kg[DM]/ha per mm[ET]
   Yield Productivity                       2.05 kg[grain yield]/m3[ET]   =   20.5 kg[yield]/ha per mm[ET]

 Transpiration during growing season       268.2 mm[EP]
   Dry Matter Productivity                  6.21 kg[DM]/m3[EP]            =   62.1 kg[DM]/ha per mm[EP]
   Yield Productivity                       2.88 kg[grain yield]/m3[EP]   =   28.8 kg[yield]/ha per mm[EP]

 N applied during growing season            161. kg[N applied]/ha
   Dry Matter Productivity                 103.5 kg[DM]/kg[N applied]
   Yield Productivity                       48.0 kg[yield]/kg[N applied]

 N uptake during growing season              199 kg[N uptake]/ha
   Dry Matter Productivity                  83.7 kg[DM]/kg[N uptake]
   Yield Productivity                       38.8 kg[yield]/kg[N uptake]

--------------------------------------------------------------------------------------------------------------

                     Maize YIELD :     7730 kg/ha    [Dry weight] 

**************************************************************************************************************

*DSSAT Cropping System Model Ver. 4.6.1.000 -release      OCT 24, 2017; 10:40:59
                                                                                
*RUN   2        : P04/07                    MZCER046 ANBU1997    2              
 MODEL          : MZCER046 - Maize                                              
 EXPERIMENT     : ANBU1997 MZ  Analisis a침os de bajo rendimiento Buga          
 DATA PATH      : C:\DSSAT46\maize\                                             
 TREATMENT  2   : P04/07                    MZCER046                            
                                                                                
                                                                                
 CROP           : Maize            CULTIVAR : DK234            ECOTYPE :IB0001  
 STARTING DATE  : MAR  8 1997                                                   
 PLANTING DATE  : APR  7 1997        PLANTS/m2 :  6.2     ROW SPACING :  80.cm  
 WEATHER        : CUNI   1997                                                   
 SOIL           : CCBUGA2017     TEXTURE : CL    -   Suelo Buga MADR Fase I     
 SOIL INITIAL C : DEPTH: 90cm EXTR. H2O: 83.9mm  NO3:  0.0kg/ha  NH4:  0.0kg/ha 
 WATER BALANCE  : RAINFED                                                       
 IRRIGATION     : NOT IRRIGATED                                                 
 NITROGEN BAL.  : SOIL-N & N-UPTAKE SIMULATION; NO N-FIXATION                   
 N-FERTILIZER   :      161 kg/ha IN     5 APPLICATIONS                          
 RESIDUE/MANURE : INITIAL :     0 kg/ha ;       0 kg/ha IN     0 APPLICATIONS   
 ENVIRONM. OPT. : DAYL=    0.00  SRAD=    0.00  TMAX=    0.00  TMIN=    0.00    
                  RAIN=    0.00  CO2 =    0.00  DEW =    0.00  WIND=    0.00    
 SIMULATION OPT : WATER   :Y  NITROGEN:Y  N-FIX:N  PHOSPH :N  PESTS  :N         
                  PHOTO   :C  ET      :R  INFIL:S  HYDROL :R  SOM    :G         
                  CO2 363ppm  NSWIT   :1  EVAP :S  SOIL   :2  STEMP  :D         
 MANAGEMENT OPT : PLANTING:R  IRRIG   :N  FERT :D  RESIDUE:R  HARVEST:M         
                  WEATHER :M  TILLAGE :N                                        
                                                                                
*SUMMARY OF SOIL AND GENETIC INPUT PARAMETERS                                   
                                                                                
   SOIL LOWER UPPER   SAT  EXTR  INIT   ROOT   BULK     pH    NO3    NH4    ORG 
  DEPTH LIMIT LIMIT    SW    SW    SW   DIST   DENS                          C  
   cm   cm3/cm3    cm3/cm3    cm3/cm3         g/cm3         ugN/g  ugN/g     %  
------------------------------------------------------------------------------- 
  0-  5 0.215 0.331 0.341 0.116 0.331   1.00   1.68   6.70   0.00   0.00   0.75 
  5- 15 0.215 0.331 0.341 0.116 0.331   1.00   1.68   6.70   0.00   0.00   0.75 
 15- 25 0.215 0.331 0.341 0.116 0.331   1.00   1.68   6.70   0.00   0.00   0.75 
 25- 35 0.181 0.291 0.364 0.110 0.291   0.50   1.61   7.20   0.00   0.00   0.53 
 35- 45 0.181 0.291 0.364 0.110 0.291   0.50   1.61   7.20   0.00   0.00   0.53 
 45- 67 0.096 0.169 0.404 0.073 0.169   0.27   1.51   7.00   0.00   0.00   0.05 
 67- 90 0.096 0.169 0.404 0.073 0.169   0.27   1.51   7.00   0.00   0.00   0.05 
                                                                                
TOT- 90  13.3  21.7  34.0   8.4  21.7  <--cm   -  kg/ha-->    0.0    0.0  51964 
SOIL ALBEDO    : 0.09      EVAPORATION LIMIT : 6.00         MIN. FACTOR  : 1.00 
RUNOFF CURVE # :76.00      DRAINAGE RATE     : 0.60         FERT. FACTOR : 1.00 
                                                                                
 Maize      CULTIVAR :CI0002-DK234              ECOTYPE :IB0001                 
 P1     : 300.00  P2     : 0.4000  P5     :1075.00                              
 G2     : 890.00  G3     :  7.750  PHINT  : 40.000                              


*SIMULATED CROP AND SOIL STATUS AT MAIN DEVELOPMENT STAGES

 RUN NO.     2     P04/07                  

        CROP GROWTH     BIOMASS         LEAF   CROP N     STRESS      STRESS                                           
   DATE  AGE STAGE        kg/ha    LAI   NUM  kg/ha  %   H2O  Nitr Phos1 Phos2  RSTG                                   
 ------  --- ----------   -----  -----  ----  ---  ---  ----  ----  ----  ----  ----                                   
  8 MAR    0 Start Sim        0   0.00   0.0    0  0.0  0.00  0.00  0.00  0.00     7
  7 APR    0 Sowing           0   0.00   0.0    0  0.0  0.00  0.00  0.00  0.00     8
  8 APR    1 Germinate        0   0.00   0.0    0  0.0  0.00  0.00  0.00  0.00     9
 13 APR    6 Emergence       25   0.00   2.2    1  4.4  0.00  0.01  0.00  0.00     1
 30 APR   23 End Juveni     239   0.46  10.1    7  3.1  0.01  0.00  0.00  0.00     2
  8 MAY   31 Floral Ini     875   1.29  13.6   31  3.6  0.00  0.08  0.00  0.00     3
 19 JUN   73 75% Silkin    8769   4.56  28.1  175  2.0  0.01  0.03  0.00  0.00     4
 29 JUN   83 Beg Gr Fil   10985   4.39  28.1  176  1.6  0.01  0.00  0.00  0.00     5
 17 AUG  132 End Gr Fil   16123   1.07  28.1  180  1.1  0.64  0.01  0.00  0.00     6
 20 AUG  135 Maturity     16123   1.07  28.1  180  1.1  0.95  0.01  0.00  0.00    10
 20 AUG  135 Harvest      16123   1.07  28.1  180  1.1  0.00  0.00  0.00  0.00    10


*MAIN GROWTH AND DEVELOPMENT VARIABLES

@     VARIABLE                                         SIMULATED     MEASURED
      --------                                         ---------     --------
      Anthesis day (dap)                                      73          -99
      Physiological maturity day (dap)                       135          -99
      Yield at harvest maturity (kg [dm]/ha)                6481          -99
      Number at maturity (no/m2)                            2883          -99
      Unit wt at maturity (g [dm]/unit)                   0.2248          -99
      Number at maturity (no/unit)                         465.0          -99
      Tops weight at maturity (kg [dm]/ha)                 16123          -99
      By-product produced (stalk) at maturity (kg[dm]/ha    9726          -99
      Leaf area index, maximum                              4.58          -99
      Harvest index at maturity                            0.402          -99
      Grain N at maturity (kg/ha)                            116          -99
      Tops N at maturity (kg/ha)                             180          -99
      Stem N at maturity (kg/ha)                              64          -99
      Grain N at maturity (%)                                1.8          -99
      Tops weight at anthesis (kg [dm]/ha)                  8549          -99
      Tops N at anthesis (kg/ha)                             175          -99
      Leaf number per stem at maturity                     28.10          -99
      Emergence day (dap)                                      6          -99


*ENVIRONMENTAL AND STRESS FACTORS

 |-----Development Phase------|--------------------------------------Environment--------------------------------------|-----------------Stress-----------------|
                              |---------------Average--------------|-----Cumulative-----|--------Count of days--------|          (0=Min, 1=Max Stress)         |
                         Time  Temp  Temp  Temp Solar Photop                Evapo    Pot TMIN TMIN TMAX TMAX TMAX RAIN|----Water----|---Nitrogen--|-Phosphorus-|
                         Span   Max   Min  Mean   Rad  [day]    CO2   Rain  Trans     ET   <    <    >    >    >    >   Photo         Photo         Photo
                         days    邂    邂    邂 MJ/m2     hr    ppm     mm     mm     mm  0邂  2邂 30邂 32邂 34邂  0mm  synth Growth  synth Growth  synth Growth
----------------------------------------------------------------------------------------------------------------------------------------------------------------
 Emergence-End Juvenile    17  30.0  19.4  24.7  15.4  23.81  363.4  105.0   58.5   72.6    0    0    9    4    0    8  0.000  0.007  0.002  0.004  0.000  0.000
 End Juvenil-Floral Init    8  31.6  18.4  25.0  16.3  24.00  363.4   14.0   20.4   34.4    0    0    7    3    0    2  0.000  0.000  0.032  0.081  0.000  0.000
 Floral Init-End Lf Grow   42  29.5  18.9  24.2  14.1  24.00  363.5  197.0  139.0  141.0    0    0   18    3    0   16  0.002  0.010  0.014  0.034  0.000  0.000
 End Lf Grth-Beg Grn Fil   10  30.4  18.4  24.4  15.4  24.00  363.7    8.0   36.0   36.1    0    0    6    1    0    3  0.000  0.000  0.000  0.000  0.000  0.000
 Grain Filling Phase       49  32.7  18.1  25.4  18.4  24.00  363.8   72.2  106.5  222.5    0    0   47   27   10    8  0.559  0.628  0.005  0.012  0.000  0.000


 Planting to Harvest      135  31.0  18.6  24.8  16.2  23.76  363.6  403.2  369.4  546.0    0    0   93   42   11   39  0.224  0.253  0.008  0.021  0.000  0.000
----------------------------------------------------------------------------------------------------------------------------------------------------------------


*Resource Productivity
 Growing season length: 135 days 

 Precipitation during growing season       403.2 mm[rain]
   Dry Matter Productivity                  4.00 kg[DM]/m3[rain]          =   40.0 kg[DM]/ha per mm[rain]
   Yield Productivity                       1.61 kg[grain yield]/m3[rain] =   16.1 kg[yield]/ha per mm[rain]

 Evapotranspiration during growing season  369.4 mm[ET]
   Dry Matter Productivity                  4.37 kg[DM]/m3[ET]            =   43.7 kg[DM]/ha per mm[ET]
   Yield Productivity                       1.75 kg[grain yield]/m3[ET]   =   17.5 kg[yield]/ha per mm[ET]

 Transpiration during growing season       249.1 mm[EP]
   Dry Matter Productivity                  6.47 kg[DM]/m3[EP]            =   64.7 kg[DM]/ha per mm[EP]
   Yield Productivity                       2.60 kg[grain yield]/m3[EP]   =   26.0 kg[yield]/ha per mm[EP]

 N applied during growing season            161. kg[N applied]/ha
   Dry Matter Productivity                 100.1 kg[DM]/kg[N applied]
   Yield Productivity                       40.3 kg[yield]/kg[N applied]

 N uptake during growing season              198 kg[N uptake]/ha
   Dry Matter Productivity                  81.4 kg[DM]/kg[N uptake]
   Yield Productivity                       32.7 kg[yield]/kg[N uptake]

--------------------------------------------------------------------------------------------------------------

                     Maize YIELD :     6481 kg/ha    [Dry weight] 

**************************************************************************************************************

*DSSAT Cropping System Model Ver. 4.6.1.000 -release      OCT 24, 2017; 10:40:59
                                                                                
*RUN   3        : P04/12                    MZCER046 ANBU1997    3              
 MODEL          : MZCER046 - Maize                                              
 EXPERIMENT     : ANBU1997 MZ  Analisis a침os de bajo rendimiento Buga          
 DATA PATH      : C:\DSSAT46\maize\                                             
 TREATMENT  3   : P04/12                    MZCER046                            
                                                                                
                                                                                
 CROP           : Maize            CULTIVAR : DK234            ECOTYPE :IB0001  
 STARTING DATE  : MAR 13 1997                                                   
 PLANTING DATE  : APR 12 1997        PLANTS/m2 :  6.2     ROW SPACING :  80.cm  
 WEATHER        : CUNI   1997                                                   
 SOIL           : CCBUGA2017     TEXTURE : CL    -   Suelo Buga MADR Fase I     
 SOIL INITIAL C : DEPTH: 90cm EXTR. H2O: 83.9mm  NO3:  0.0kg/ha  NH4:  0.0kg/ha 
 WATER BALANCE  : RAINFED                                                       
 IRRIGATION     : NOT IRRIGATED                                                 
 NITROGEN BAL.  : SOIL-N & N-UPTAKE SIMULATION; NO N-FIXATION                   
 N-FERTILIZER   :      161 kg/ha IN     5 APPLICATIONS                          
 RESIDUE/MANURE : INITIAL :     0 kg/ha ;       0 kg/ha IN     0 APPLICATIONS   
 ENVIRONM. OPT. : DAYL=    0.00  SRAD=    0.00  TMAX=    0.00  TMIN=    0.00    
                  RAIN=    0.00  CO2 =    0.00  DEW =    0.00  WIND=    0.00    
 SIMULATION OPT : WATER   :Y  NITROGEN:Y  N-FIX:N  PHOSPH :N  PESTS  :N         
                  PHOTO   :C  ET      :R  INFIL:S  HYDROL :R  SOM    :G         
                  CO2 363ppm  NSWIT   :1  EVAP :S  SOIL   :2  STEMP  :D         
 MANAGEMENT OPT : PLANTING:R  IRRIG   :N  FERT :D  RESIDUE:R  HARVEST:M         
                  WEATHER :M  TILLAGE :N                                        
                                                                                
*SUMMARY OF SOIL AND GENETIC INPUT PARAMETERS                                   
                                                                                
   SOIL LOWER UPPER   SAT  EXTR  INIT   ROOT   BULK     pH    NO3    NH4    ORG 
  DEPTH LIMIT LIMIT    SW    SW    SW   DIST   DENS                          C  
   cm   cm3/cm3    cm3/cm3    cm3/cm3         g/cm3         ugN/g  ugN/g     %  
------------------------------------------------------------------------------- 
  0-  5 0.215 0.331 0.341 0.116 0.331   1.00   1.68   6.70   0.00   0.00   0.75 
  5- 15 0.215 0.331 0.341 0.116 0.331   1.00   1.68   6.70   0.00   0.00   0.75 
 15- 25 0.215 0.331 0.341 0.116 0.331   1.00   1.68   6.70   0.00   0.00   0.75 
 25- 35 0.181 0.291 0.364 0.110 0.291   0.50   1.61   7.20   0.00   0.00   0.53 
 35- 45 0.181 0.291 0.364 0.110 0.291   0.50   1.61   7.20   0.00   0.00   0.53 
 45- 67 0.096 0.169 0.404 0.073 0.169   0.27   1.51   7.00   0.00   0.00   0.05 
 67- 90 0.096 0.169 0.404 0.073 0.169   0.27   1.51   7.00   0.00   0.00   0.05 
                                                                                
TOT- 90  13.3  21.7  34.0   8.4  21.7  <--cm   -  kg/ha-->    0.0    0.0  51964 
SOIL ALBEDO    : 0.09      EVAPORATION LIMIT : 6.00         MIN. FACTOR  : 1.00 
RUNOFF CURVE # :76.00      DRAINAGE RATE     : 0.60         FERT. FACTOR : 1.00 
                                                                                
 Maize      CULTIVAR :CI0002-DK234              ECOTYPE :IB0001                 
 P1     : 300.00  P2     : 0.4000  P5     :1075.00                              
 G2     : 890.00  G3     :  7.750  PHINT  : 40.000                              


*SIMULATED CROP AND SOIL STATUS AT MAIN DEVELOPMENT STAGES

 RUN NO.     3     P04/12                  

        CROP GROWTH     BIOMASS         LEAF   CROP N     STRESS      STRESS                                           
   DATE  AGE STAGE        kg/ha    LAI   NUM  kg/ha  %   H2O  Nitr Phos1 Phos2  RSTG                                   
 ------  --- ----------   -----  -----  ----  ---  ---  ----  ----  ----  ----  ----                                   
 13 MAR    0 Start Sim        0   0.00   0.0    0  0.0  0.00  0.00  0.00  0.00     7
 12 APR    0 Sowing           0   0.00   0.0    0  0.0  0.00  0.00  0.00  0.00     8
 13 APR    1 Germinate        0   0.00   0.0    0  0.0  0.00  0.00  0.00  0.00     9
 18 APR    6 Emergence       25   0.00   2.2    1  4.4  0.00  0.01  0.00  0.00     1
  5 MAY   23 End Juveni     289   0.54  10.0    9  3.1  0.00  0.00  0.00  0.00     2
 13 MAY   31 Floral Ini     821   1.24  13.4   30  3.6  0.00  0.03  0.00  0.00     3
 24 JUN   73 75% Silkin    9379   4.78  28.0  178  1.9  0.02  0.04  0.00  0.00     4
  4 JUL   83 Beg Gr Fil   11873   4.50  28.0  178  1.5  0.07  0.00  0.00  0.00     5
 22 AUG  132 End Gr Fil   16050   0.86  28.0  182  1.1  0.74  0.00  0.00  0.00     6
 25 AUG  135 Maturity     16050   0.86  28.0  182  1.1  0.95  0.00  0.00  0.00    10
 25 AUG  135 Harvest      16050   0.86  28.0  182  1.1  0.00  0.00  0.00  0.00    10


*MAIN GROWTH AND DEVELOPMENT VARIABLES

@     VARIABLE                                         SIMULATED     MEASURED
      --------                                         ---------     --------
      Anthesis day (dap)                                      73          -99
      Physiological maturity day (dap)                       135          -99
      Yield at harvest maturity (kg [dm]/ha)                5596          -99
      Number at maturity (no/m2)                            3111          -99
      Unit wt at maturity (g [dm]/unit)                   0.1799          -99
      Number at maturity (no/unit)                         501.8          -99
      Tops weight at maturity (kg [dm]/ha)                 16050          -99
      By-product produced (stalk) at maturity (kg[dm]/ha   10543          -99
      Leaf area index, maximum                              4.81          -99
      Harvest index at maturity                            0.349          -99
      Grain N at maturity (kg/ha)                            102          -99
      Tops N at maturity (kg/ha)                             182          -99
      Stem N at maturity (kg/ha)                              80          -99
      Grain N at maturity (%)                                1.8          -99
      Tops weight at anthesis (kg [dm]/ha)                  9241          -99
      Tops N at anthesis (kg/ha)                             177          -99
      Leaf number per stem at maturity                     27.98          -99
      Emergence day (dap)                                      6          -99


*ENVIRONMENTAL AND STRESS FACTORS

 |-----Development Phase------|--------------------------------------Environment--------------------------------------|-----------------Stress-----------------|
                              |---------------Average--------------|-----Cumulative-----|--------Count of days--------|          (0=Min, 1=Max Stress)         |
                         Time  Temp  Temp  Temp Solar Photop                Evapo    Pot TMIN TMIN TMAX TMAX TMAX RAIN|----Water----|---Nitrogen--|-Phosphorus-|
                         Span   Max   Min  Mean   Rad  [day]    CO2   Rain  Trans     ET   <    <    >    >    >    >   Photo         Photo         Photo
                         days    邂    邂    邂 MJ/m2     hr    ppm     mm     mm     mm  0邂  2邂 30邂 32邂 34邂  0mm  synth Growth  synth Growth  synth Growth
----------------------------------------------------------------------------------------------------------------------------------------------------------------
 Emergence-End Juvenile    17  30.0  18.9  24.5  15.2  24.00  363.4   73.0   48.8   71.3    0    0    8    4    0    8  0.000  0.000  0.003  0.006  0.000  0.000
 End Juvenil-Floral Init    8  30.7  18.8  24.7  15.7  24.00  363.4   46.0   24.1   32.8    0    0    6    2    0    4  0.000  0.000  0.012  0.029  0.000  0.000
 Floral Init-End Lf Grow   42  29.6  18.9  24.2  14.3  24.00  363.6  163.0  140.3  142.6    0    0   18    2    0   13  0.005  0.016  0.014  0.035  0.000  0.000
 End Lf Grth-Beg Grn Fil   10  30.7  17.9  24.3  16.7  24.00  363.7   25.0   38.9   39.0    0    0    7    1    0    5  0.000  0.023  0.003  0.007  0.000  0.000
 Grain Filling Phase       49  32.9  18.2  25.5  18.4  24.00  363.8   55.2   84.4  225.4    0    0   48   31   13    6  0.664  0.730  0.000  0.000  0.000  0.000


 Planting to Harvest      135  31.2  18.5  24.9  16.4  23.95  363.6  396.2  356.8  555.5    0    0   96   46   14   37  0.263  0.293  0.006  0.014  0.000  0.000
----------------------------------------------------------------------------------------------------------------------------------------------------------------


*Resource Productivity
 Growing season length: 135 days 

 Precipitation during growing season       396.2 mm[rain]
   Dry Matter Productivity                  4.05 kg[DM]/m3[rain]          =   40.5 kg[DM]/ha per mm[rain]
   Yield Productivity                       1.41 kg[grain yield]/m3[rain] =   14.1 kg[yield]/ha per mm[rain]

 Evapotranspiration during growing season  356.8 mm[ET]
   Dry Matter Productivity                  4.50 kg[DM]/m3[ET]            =   45.0 kg[DM]/ha per mm[ET]
   Yield Productivity                       1.57 kg[grain yield]/m3[ET]   =   15.7 kg[yield]/ha per mm[ET]

 Transpiration during growing season       231.6 mm[EP]
   Dry Matter Productivity                  6.93 kg[DM]/m3[EP]            =   69.3 kg[DM]/ha per mm[EP]
   Yield Productivity                       2.42 kg[grain yield]/m3[EP]   =   24.2 kg[yield]/ha per mm[EP]

 N applied during growing season            161. kg[N applied]/ha
   Dry Matter Productivity                  99.7 kg[DM]/kg[N applied]
   Yield Productivity                       34.8 kg[yield]/kg[N applied]

 N uptake during growing season              194 kg[N uptake]/ha
   Dry Matter Productivity                  82.7 kg[DM]/kg[N uptake]
   Yield Productivity                       28.8 kg[yield]/kg[N uptake]

--------------------------------------------------------------------------------------------------------------

                     Maize YIELD :     5596 kg/ha    [Dry weight] 

**************************************************************************************************************

*DSSAT Cropping System Model Ver. 4.6.1.000 -release      OCT 24, 2017; 10:41:00
                                                                                
*RUN   4        : P04/17                    MZCER046 ANBU1997    4              
 MODEL          : MZCER046 - Maize                                              
 EXPERIMENT     : ANBU1997 MZ  Analisis a침os de bajo rendimiento Buga          
 DATA PATH      : C:\DSSAT46\maize\                                             
 TREATMENT  4   : P04/17                    MZCER046                            
                                                                                
                                                                                
 CROP           : Maize            CULTIVAR : DK234            ECOTYPE :IB0001  
 STARTING DATE  : MAR 18 1997                                                   
 PLANTING DATE  : APR 17 1997        PLANTS/m2 :  6.2     ROW SPACING :  80.cm  
 WEATHER        : CUNI   1997                                                   
 SOIL           : CCBUGA2017     TEXTURE : CL    -   Suelo Buga MADR Fase I     
 SOIL INITIAL C : DEPTH: 90cm EXTR. H2O: 83.9mm  NO3:  0.0kg/ha  NH4:  0.0kg/ha 
 WATER BALANCE  : RAINFED                                                       
 IRRIGATION     : NOT IRRIGATED                                                 
 NITROGEN BAL.  : SOIL-N & N-UPTAKE SIMULATION; NO N-FIXATION                   
 N-FERTILIZER   :      161 kg/ha IN     5 APPLICATIONS                          
 RESIDUE/MANURE : INITIAL :     0 kg/ha ;       0 kg/ha IN     0 APPLICATIONS   
 ENVIRONM. OPT. : DAYL=    0.00  SRAD=    0.00  TMAX=    0.00  TMIN=    0.00    
                  RAIN=    0.00  CO2 =    0.00  DEW =    0.00  WIND=    0.00    
 SIMULATION OPT : WATER   :Y  NITROGEN:Y  N-FIX:N  PHOSPH :N  PESTS  :N         
                  PHOTO   :C  ET      :R  INFIL:S  HYDROL :R  SOM    :G         
                  CO2 363ppm  NSWIT   :1  EVAP :S  SOIL   :2  STEMP  :D         
 MANAGEMENT OPT : PLANTING:R  IRRIG   :N  FERT :D  RESIDUE:R  HARVEST:M         
                  WEATHER :M  TILLAGE :N                                        
                                                                                
*SUMMARY OF SOIL AND GENETIC INPUT PARAMETERS                                   
                                                                                
   SOIL LOWER UPPER   SAT  EXTR  INIT   ROOT   BULK     pH    NO3    NH4    ORG 
  DEPTH LIMIT LIMIT    SW    SW    SW   DIST   DENS                          C  
   cm   cm3/cm3    cm3/cm3    cm3/cm3         g/cm3         ugN/g  ugN/g     %  
------------------------------------------------------------------------------- 
  0-  5 0.215 0.331 0.341 0.116 0.331   1.00   1.68   6.70   0.00   0.00   0.75 
  5- 15 0.215 0.331 0.341 0.116 0.331   1.00   1.68   6.70   0.00   0.00   0.75 
 15- 25 0.215 0.331 0.341 0.116 0.331   1.00   1.68   6.70   0.00   0.00   0.75 
 25- 35 0.181 0.291 0.364 0.110 0.291   0.50   1.61   7.20   0.00   0.00   0.53 
 35- 45 0.181 0.291 0.364 0.110 0.291   0.50   1.61   7.20   0.00   0.00   0.53 
 45- 67 0.096 0.169 0.404 0.073 0.169   0.27   1.51   7.00   0.00   0.00   0.05 
 67- 90 0.096 0.169 0.404 0.073 0.169   0.27   1.51   7.00   0.00   0.00   0.05 
                                                                                
TOT- 90  13.3  21.7  34.0   8.4  21.7  <--cm   -  kg/ha-->    0.0    0.0  51964 
SOIL ALBEDO    : 0.09      EVAPORATION LIMIT : 6.00         MIN. FACTOR  : 1.00 
RUNOFF CURVE # :76.00      DRAINAGE RATE     : 0.60         FERT. FACTOR : 1.00 
                                                                                
 Maize      CULTIVAR :CI0002-DK234              ECOTYPE :IB0001                 
 P1     : 300.00  P2     : 0.4000  P5     :1075.00                              
 G2     : 890.00  G3     :  7.750  PHINT  : 40.000                              


*SIMULATED CROP AND SOIL STATUS AT MAIN DEVELOPMENT STAGES

 RUN NO.     4     P04/17                  

        CROP GROWTH     BIOMASS         LEAF   CROP N     STRESS      STRESS                                           
   DATE  AGE STAGE        kg/ha    LAI   NUM  kg/ha  %   H2O  Nitr Phos1 Phos2  RSTG                                   
 ------  --- ----------   -----  -----  ----  ---  ---  ----  ----  ----  ----  ----                                   
 18 MAR    0 Start Sim        0   0.00   0.0    0  0.0  0.00  0.00  0.00  0.00     7
 17 APR    0 Sowing           0   0.00   0.0    0  0.0  0.00  0.00  0.00  0.00     8
 18 APR    1 Germinate        0   0.00   0.0    0  0.0  0.00  0.00  0.00  0.00     9
 23 APR    6 Emergence       25   0.00   2.2    1  4.4  0.00  0.01  0.00  0.00     1
 10 MAY   23 End Juveni     352   0.63  10.2   11  3.2  0.00  0.00  0.00  0.00     2
 18 MAY   31 Floral Ini    1020   1.48  13.5   35  3.4  0.00  0.00  0.00  0.00     3
 28 JUN   72 75% Silkin    9159   4.69  27.6  175  1.9  0.03  0.04  0.00  0.00     4
  8 JUL   82 Beg Gr Fil   11266   4.06  27.6  177  1.6  0.35  0.01  0.00  0.00     5
 26 AUG  131 End Gr Fil   14875   0.72  27.6  181  1.2  0.76  0.00  0.00  0.00     6
 29 AUG  134 Maturity     14875   0.72  27.6  181  1.2  0.95  0.00  0.00  0.00    10
 29 AUG  134 Harvest      14875   0.72  27.6  181  1.2  0.00  0.00  0.00  0.00    10


*MAIN GROWTH AND DEVELOPMENT VARIABLES

@     VARIABLE                                         SIMULATED     MEASURED
      --------                                         ---------     --------
      Anthesis day (dap)                                      72          -99
      Physiological maturity day (dap)                       134          -99
      Yield at harvest maturity (kg [dm]/ha)                5440          -99
      Number at maturity (no/m2)                            2945          -99
      Unit wt at maturity (g [dm]/unit)                   0.1847          -99
      Number at maturity (no/unit)                         475.0          -99
      Tops weight at maturity (kg [dm]/ha)                 14875          -99
      By-product produced (stalk) at maturity (kg[dm]/ha    9522          -99
      Leaf area index, maximum                              4.72          -99
      Harvest index at maturity                            0.366          -99
      Grain N at maturity (kg/ha)                            100          -99
      Tops N at maturity (kg/ha)                             181          -99
      Stem N at maturity (kg/ha)                              81          -99
      Grain N at maturity (%)                                1.8          -99
      Tops weight at anthesis (kg [dm]/ha)                  8875          -99
      Tops N at anthesis (kg/ha)                             175          -99
      Leaf number per stem at maturity                     27.63          -99
      Emergence day (dap)                                      6          -99


*ENVIRONMENTAL AND STRESS FACTORS

 |-----Development Phase------|--------------------------------------Environment--------------------------------------|-----------------Stress-----------------|
                              |---------------Average--------------|-----Cumulative-----|--------Count of days--------|          (0=Min, 1=Max Stress)         |
                         Time  Temp  Temp  Temp Solar Photop                Evapo    Pot TMIN TMIN TMAX TMAX TMAX RAIN|----Water----|---Nitrogen--|-Phosphorus-|
                         Span   Max   Min  Mean   Rad  [day]    CO2   Rain  Trans     ET   <    <    >    >    >    >   Photo         Photo         Photo
                         days    邂    邂    邂 MJ/m2     hr    ppm     mm     mm     mm  0邂  2邂 30邂 32邂 34邂  0mm  synth Growth  synth Growth  synth Growth
----------------------------------------------------------------------------------------------------------------------------------------------------------------
 Emergence-End Juvenile    17  30.8  18.6  24.7  16.8  24.00  363.4   59.0   45.8   78.7    0    0   11    5    0    5  0.000  0.002  0.002  0.006  0.000  0.000
 End Juvenil-Floral Init    8  29.6  18.7  24.2  15.9  24.00  363.5   28.0   31.5   32.5    0    0    4    0    0    4  0.000  0.000  0.000  0.001  0.000  0.000
 Floral Init-End Lf Grow   41  29.6  18.9  24.2  13.9  24.00  363.6  165.0  131.1  134.5    0    0   17    3    0   14  0.011  0.028  0.014  0.035  0.000  0.000
 End Lf Grth-Beg Grn Fil   10  31.4  17.7  24.6  19.4  24.00  363.7   17.0   37.4   45.6    0    0    9    2    0    2  0.187  0.289  0.005  0.013  0.000  0.000
 Grain Filling Phase       49  33.0  18.1  25.6  18.4  24.00  363.8   55.2   76.0  226.7    0    0   48   33   14    6  0.700  0.755  0.000  0.000  0.000  0.000


 Planting to Harvest      134  31.2  18.5  24.8  16.3  24.00  363.6  363.1  335.1  549.5    0    0   95   47   15   37  0.294  0.328  0.005  0.012  0.000  0.000
----------------------------------------------------------------------------------------------------------------------------------------------------------------


*Resource Productivity
 Growing season length: 134 days 

 Precipitation during growing season       363.1 mm[rain]
   Dry Matter Productivity                  4.10 kg[DM]/m3[rain]          =   41.0 kg[DM]/ha per mm[rain]
   Yield Productivity                       1.50 kg[grain yield]/m3[rain] =   15.0 kg[yield]/ha per mm[rain]

 Evapotranspiration during growing season  335.1 mm[ET]
   Dry Matter Productivity                  4.44 kg[DM]/m3[ET]            =   44.4 kg[DM]/ha per mm[ET]
   Yield Productivity                       1.62 kg[grain yield]/m3[ET]   =   16.2 kg[yield]/ha per mm[ET]

 Transpiration during growing season       218.5 mm[EP]
   Dry Matter Productivity                  6.81 kg[DM]/m3[EP]            =   68.1 kg[DM]/ha per mm[EP]
   Yield Productivity                       2.49 kg[grain yield]/m3[EP]   =   24.9 kg[yield]/ha per mm[EP]

 N applied during growing season            161. kg[N applied]/ha
   Dry Matter Productivity                  92.4 kg[DM]/kg[N applied]
   Yield Productivity                       33.8 kg[yield]/kg[N applied]

 N uptake during growing season              194 kg[N uptake]/ha
   Dry Matter Productivity                  76.7 kg[DM]/kg[N uptake]
   Yield Productivity                       28.0 kg[yield]/kg[N uptake]

--------------------------------------------------------------------------------------------------------------

                     Maize YIELD :     5440 kg/ha    [Dry weight] 

**************************************************************************************************************

*DSSAT Cropping System Model Ver. 4.6.1.000 -release      OCT 24, 2017; 10:41:00
                                                                                
*RUN   5        : P04/22                    MZCER046 ANBU1997    5              
 MODEL          : MZCER046 - Maize                                              
 EXPERIMENT     : ANBU1997 MZ  Analisis a침os de bajo rendimiento Buga          
 DATA PATH      : C:\DSSAT46\maize\                                             
 TREATMENT  5   : P04/22                    MZCER046                            
                                                                                
                                                                                
 CROP           : Maize            CULTIVAR : DK234            ECOTYPE :IB0001  
 STARTING DATE  : MAR 23 1997                                                   
 PLANTING DATE  : APR 22 1997        PLANTS/m2 :  6.2     ROW SPACING :  80.cm  
 WEATHER        : CUNI   1997                                                   
 SOIL           : CCBUGA2017     TEXTURE : CL    -   Suelo Buga MADR Fase I     
 SOIL INITIAL C : DEPTH: 90cm EXTR. H2O: 83.9mm  NO3:  0.0kg/ha  NH4:  0.0kg/ha 
 WATER BALANCE  : RAINFED                                                       
 IRRIGATION     : NOT IRRIGATED                                                 
 NITROGEN BAL.  : SOIL-N & N-UPTAKE SIMULATION; NO N-FIXATION                   
 N-FERTILIZER   :      161 kg/ha IN     5 APPLICATIONS                          
 RESIDUE/MANURE : INITIAL :     0 kg/ha ;       0 kg/ha IN     0 APPLICATIONS   
 ENVIRONM. OPT. : DAYL=    0.00  SRAD=    0.00  TMAX=    0.00  TMIN=    0.00    
                  RAIN=    0.00  CO2 =    0.00  DEW =    0.00  WIND=    0.00    
 SIMULATION OPT : WATER   :Y  NITROGEN:Y  N-FIX:N  PHOSPH :N  PESTS  :N         
                  PHOTO   :C  ET      :R  INFIL:S  HYDROL :R  SOM    :G         
                  CO2 363ppm  NSWIT   :1  EVAP :S  SOIL   :2  STEMP  :D         
 MANAGEMENT OPT : PLANTING:R  IRRIG   :N  FERT :D  RESIDUE:R  HARVEST:M         
                  WEATHER :M  TILLAGE :N                                        
                                                                                
*SUMMARY OF SOIL AND GENETIC INPUT PARAMETERS                                   
                                                                                
   SOIL LOWER UPPER   SAT  EXTR  INIT   ROOT   BULK     pH    NO3    NH4    ORG 
  DEPTH LIMIT LIMIT    SW    SW    SW   DIST   DENS                          C  
   cm   cm3/cm3    cm3/cm3    cm3/cm3         g/cm3         ugN/g  ugN/g     %  
------------------------------------------------------------------------------- 
  0-  5 0.215 0.331 0.341 0.116 0.331   1.00   1.68   6.70   0.00   0.00   0.75 
  5- 15 0.215 0.331 0.341 0.116 0.331   1.00   1.68   6.70   0.00   0.00   0.75 
 15- 25 0.215 0.331 0.341 0.116 0.331   1.00   1.68   6.70   0.00   0.00   0.75 
 25- 35 0.181 0.291 0.364 0.110 0.291   0.50   1.61   7.20   0.00   0.00   0.53 
 35- 45 0.181 0.291 0.364 0.110 0.291   0.50   1.61   7.20   0.00   0.00   0.53 
 45- 67 0.096 0.169 0.404 0.073 0.169   0.27   1.51   7.00   0.00   0.00   0.05 
 67- 90 0.096 0.169 0.404 0.073 0.169   0.27   1.51   7.00   0.00   0.00   0.05 
                                                                                
TOT- 90  13.3  21.7  34.0   8.4  21.7  <--cm   -  kg/ha-->    0.0    0.0  51964 
SOIL ALBEDO    : 0.09      EVAPORATION LIMIT : 6.00         MIN. FACTOR  : 1.00 
RUNOFF CURVE # :76.00      DRAINAGE RATE     : 0.60         FERT. FACTOR : 1.00 
                                                                                
 Maize      CULTIVAR :CI0002-DK234              ECOTYPE :IB0001                 
 P1     : 300.00  P2     : 0.4000  P5     :1075.00                              
 G2     : 890.00  G3     :  7.750  PHINT  : 40.000                              


*SIMULATED CROP AND SOIL STATUS AT MAIN DEVELOPMENT STAGES

 RUN NO.     5     P04/22                  

        CROP GROWTH     BIOMASS         LEAF   CROP N     STRESS      STRESS                                           
   DATE  AGE STAGE        kg/ha    LAI   NUM  kg/ha  %   H2O  Nitr Phos1 Phos2  RSTG                                   
 ------  --- ----------   -----  -----  ----  ---  ---  ----  ----  ----  ----  ----                                   
 23 MAR    0 Start Sim        0   0.00   0.0    0  0.0  0.00  0.00  0.00  0.00     7
 22 APR    0 Sowing           0   0.00   0.0    0  0.0  0.00  0.00  0.00  0.00     8
 23 APR    1 Germinate        0   0.00   0.0    0  0.0  0.00  0.00  0.00  0.00     9
 28 APR    6 Emergence       25   0.00   2.2    1  4.4  0.00  0.01  0.00  0.00     1
 15 MAY   23 End Juveni     276   0.52  10.2   10  3.5  0.00  0.00  0.00  0.00     2
 23 MAY   31 Floral Ini     932   1.38  13.6   33  3.6  0.00  0.05  0.00  0.00     3
  4 JUL   73 75% Silkin    9490   4.80  28.1  175  1.8  0.03  0.03  0.00  0.00     4
 14 JUL   83 Beg Gr Fil   10000   3.45  28.1  175  1.8  0.77  0.02  0.00  0.00     5
 31 AUG  131 End Gr Fil   12556   0.61  28.1  175  1.4  0.77  0.00  0.00  0.00     6
  3 SEP  134 Maturity     12556   0.61  28.1  175  1.4  0.95  0.00  0.00  0.00    10
  3 SEP  134 Harvest      12556   0.61  28.1  175  1.4  0.00  0.00  0.00  0.00    10


*MAIN GROWTH AND DEVELOPMENT VARIABLES

@     VARIABLE                                         SIMULATED     MEASURED
      --------                                         ---------     --------
      Anthesis day (dap)                                      73          -99
      Physiological maturity day (dap)                       134          -99
      Yield at harvest maturity (kg [dm]/ha)                3472          -99
      Number at maturity (no/m2)                            1552          -99
      Unit wt at maturity (g [dm]/unit)                   0.2237          -99
      Number at maturity (no/unit)                         250.3          -99
      Tops weight at maturity (kg [dm]/ha)                 12556          -99
      By-product produced (stalk) at maturity (kg[dm]/ha    9175          -99
      Leaf area index, maximum                              4.84          -99
      Harvest index at maturity                            0.276          -99
      Grain N at maturity (kg/ha)                             64          -99
      Tops N at maturity (kg/ha)                             175          -99
      Stem N at maturity (kg/ha)                             111          -99
      Grain N at maturity (%)                                1.8          -99
      Tops weight at anthesis (kg [dm]/ha)                  9218          -99
      Tops N at anthesis (kg/ha)                             175          -99
      Leaf number per stem at maturity                     28.08          -99
      Emergence day (dap)                                      6          -99


*ENVIRONMENTAL AND STRESS FACTORS

 |-----Development Phase------|--------------------------------------Environment--------------------------------------|-----------------Stress-----------------|
                              |---------------Average--------------|-----Cumulative-----|--------Count of days--------|          (0=Min, 1=Max Stress)         |
                         Time  Temp  Temp  Temp Solar Photop                Evapo    Pot TMIN TMIN TMAX TMAX TMAX RAIN|----Water----|---Nitrogen--|-Phosphorus-|
                         Span   Max   Min  Mean   Rad  [day]    CO2   Rain  Trans     ET   <    <    >    >    >    >   Photo         Photo         Photo
                         days    邂    邂    邂 MJ/m2     hr    ppm     mm     mm     mm  0邂  2邂 30邂 32邂 34邂  0mm  synth Growth  synth Growth  synth Growth
----------------------------------------------------------------------------------------------------------------------------------------------------------------
 Emergence-End Juvenile    17  31.0  18.6  24.8  16.8  24.00  363.4   54.0   42.2   78.9    0    0   12    5    0    7  0.000  0.000  0.002  0.005  0.000  0.000
 End Juvenil-Floral Init    8  30.9  18.8  24.8  14.8  24.00  363.5   12.0   21.1   30.8    0    0    6    1    0    1  0.000  0.000  0.019  0.048  0.000  0.000
 Floral Init-End Lf Grow   42  29.6  18.6  24.1  14.7  24.00  363.6  170.0  143.1  145.5    0    0   18    2    0   15  0.002  0.019  0.010  0.024  0.000  0.000
 End Lf Grth-Beg Grn Fil   10  31.8  18.3  25.1  18.8  24.00  363.7    0.0   19.1   44.7    0    0    9    3    1    0  0.583  0.723  0.008  0.020  0.000  0.000
 Grain Filling Phase       48  33.3  18.0  25.6  18.2  23.93  363.9   56.1   70.9  222.4    0    0   48   37   15    7  0.722  0.766  0.000  0.000  0.000  0.000


 Planting to Harvest      134  31.3  18.4  24.9  16.6  23.89  363.7  354.1  322.1  558.9    0    0   97   50   16   34  0.323  0.356  0.005  0.013  0.000  0.000
----------------------------------------------------------------------------------------------------------------------------------------------------------------


*Resource Productivity
 Growing season length: 134 days 

 Precipitation during growing season       354.1 mm[rain]
   Dry Matter Productivity                  3.55 kg[DM]/m3[rain]          =   35.5 kg[DM]/ha per mm[rain]
   Yield Productivity                       0.98 kg[grain yield]/m3[rain] =    9.8 kg[yield]/ha per mm[rain]

 Evapotranspiration during growing season  322.1 mm[ET]
   Dry Matter Productivity                  3.90 kg[DM]/m3[ET]            =   39.0 kg[DM]/ha per mm[ET]
   Yield Productivity                       1.08 kg[grain yield]/m3[ET]   =   10.8 kg[yield]/ha per mm[ET]

 Transpiration during growing season       205.4 mm[EP]
   Dry Matter Productivity                  6.11 kg[DM]/m3[EP]            =   61.1 kg[DM]/ha per mm[EP]
   Yield Productivity                       1.69 kg[grain yield]/m3[EP]   =   16.9 kg[yield]/ha per mm[EP]

 N applied during growing season            161. kg[N applied]/ha
   Dry Matter Productivity                  78.0 kg[DM]/kg[N applied]
   Yield Productivity                       21.6 kg[yield]/kg[N applied]

 N uptake during growing season              189 kg[N uptake]/ha
   Dry Matter Productivity                  66.4 kg[DM]/kg[N uptake]
   Yield Productivity                       18.4 kg[yield]/kg[N uptake]

--------------------------------------------------------------------------------------------------------------

                     Maize YIELD :     3472 kg/ha    [Dry weight] 

**************************************************************************************************************

*DSSAT Cropping System Model Ver. 4.6.1.000 -release      OCT 24, 2017; 10:41:00
                                                                                
*RUN   6        : P04/27                    MZCER046 ANBU1997    6              
 MODEL          : MZCER046 - Maize                                              
 EXPERIMENT     : ANBU1997 MZ  Analisis a침os de bajo rendimiento Buga          
 DATA PATH      : C:\DSSAT46\maize\                                             
 TREATMENT  6   : P04/27                    MZCER046                            
                                                                                
                                                                                
 CROP           : Maize            CULTIVAR : DK234            ECOTYPE :IB0001  
 STARTING DATE  : MAR 28 1997                                                   
 PLANTING DATE  : APR 27 1997        PLANTS/m2 :  6.2     ROW SPACING :  80.cm  
 WEATHER        : CUNI   1997                                                   
 SOIL           : CCBUGA2017     TEXTURE : CL    -   Suelo Buga MADR Fase I     
 SOIL INITIAL C : DEPTH: 90cm EXTR. H2O: 83.9mm  NO3:  0.0kg/ha  NH4:  0.0kg/ha 
 WATER BALANCE  : RAINFED                                                       
 IRRIGATION     : NOT IRRIGATED                                                 
 NITROGEN BAL.  : SOIL-N & N-UPTAKE SIMULATION; NO N-FIXATION                   
 N-FERTILIZER   :      161 kg/ha IN     5 APPLICATIONS                          
 RESIDUE/MANURE : INITIAL :     0 kg/ha ;       0 kg/ha IN     0 APPLICATIONS   
 ENVIRONM. OPT. : DAYL=    0.00  SRAD=    0.00  TMAX=    0.00  TMIN=    0.00    
                  RAIN=    0.00  CO2 =    0.00  DEW =    0.00  WIND=    0.00    
 SIMULATION OPT : WATER   :Y  NITROGEN:Y  N-FIX:N  PHOSPH :N  PESTS  :N         
                  PHOTO   :C  ET      :R  INFIL:S  HYDROL :R  SOM    :G         
                  CO2 363ppm  NSWIT   :1  EVAP :S  SOIL   :2  STEMP  :D         
 MANAGEMENT OPT : PLANTING:R  IRRIG   :N  FERT :D  RESIDUE:R  HARVEST:M         
                  WEATHER :M  TILLAGE :N                                        
                                                                                
*SUMMARY OF SOIL AND GENETIC INPUT PARAMETERS                                   
                                                                                
   SOIL LOWER UPPER   SAT  EXTR  INIT   ROOT   BULK     pH    NO3    NH4    ORG 
  DEPTH LIMIT LIMIT    SW    SW    SW   DIST   DENS                          C  
   cm   cm3/cm3    cm3/cm3    cm3/cm3         g/cm3         ugN/g  ugN/g     %  
------------------------------------------------------------------------------- 
  0-  5 0.215 0.331 0.341 0.116 0.331   1.00   1.68   6.70   0.00   0.00   0.75 
  5- 15 0.215 0.331 0.341 0.116 0.331   1.00   1.68   6.70   0.00   0.00   0.75 
 15- 25 0.215 0.331 0.341 0.116 0.331   1.00   1.68   6.70   0.00   0.00   0.75 
 25- 35 0.181 0.291 0.364 0.110 0.291   0.50   1.61   7.20   0.00   0.00   0.53 
 35- 45 0.181 0.291 0.364 0.110 0.291   0.50   1.61   7.20   0.00   0.00   0.53 
 45- 67 0.096 0.169 0.404 0.073 0.169   0.27   1.51   7.00   0.00   0.00   0.05 
 67- 90 0.096 0.169 0.404 0.073 0.169   0.27   1.51   7.00   0.00   0.00   0.05 
                                                                                
TOT- 90  13.3  21.7  34.0   8.4  21.7  <--cm   -  kg/ha-->    0.0    0.0  51964 
SOIL ALBEDO    : 0.09      EVAPORATION LIMIT : 6.00         MIN. FACTOR  : 1.00 
RUNOFF CURVE # :76.00      DRAINAGE RATE     : 0.60         FERT. FACTOR : 1.00 
                                                                                
 Maize      CULTIVAR :CI0002-DK234              ECOTYPE :IB0001                 
 P1     : 300.00  P2     : 0.4000  P5     :1075.00                              
 G2     : 890.00  G3     :  7.750  PHINT  : 40.000                              


*SIMULATED CROP AND SOIL STATUS AT MAIN DEVELOPMENT STAGES

 RUN NO.     6     P04/27                  

        CROP GROWTH     BIOMASS         LEAF   CROP N     STRESS      STRESS                                           
   DATE  AGE STAGE        kg/ha    LAI   NUM  kg/ha  %   H2O  Nitr Phos1 Phos2  RSTG                                   
 ------  --- ----------   -----  -----  ----  ---  ---  ----  ----  ----  ----  ----                                   
 28 MAR    0 Start Sim        0   0.00   0.0    0  0.0  0.00  0.00  0.00  0.00     7
 27 APR    0 Sowing           0   0.00   0.0    0  0.0  0.00  0.00  0.00  0.00     8
 28 APR    1 Germinate        0   0.00   0.0    0  0.0  0.00  0.00  0.00  0.00     9
  3 MAY    6 Emergence       25   0.00   2.2    1  4.4  0.00  0.01  0.00  0.00     1
 20 MAY   23 End Juveni     297   0.55  10.2    9  3.2  0.00  0.00  0.00  0.00     2
 28 MAY   31 Floral Ini     872   1.30  13.5   31  3.6  0.00  0.00  0.00  0.00     3
  9 JUL   73 75% Silkin    8294   3.92  27.9  171  2.1  0.13  0.02  0.00  0.00     4
 18 JUL   82 Beg Gr Fil    8323   2.68  27.9  171  2.1  0.89  0.00  0.00  0.00     5
  5 SEP  131 End Gr Fil   10094   0.51  27.9  171  1.7  0.71  0.00  0.00  0.00     6
  8 SEP  134 Maturity     10094   0.51  27.9  171  1.7  0.00  0.00  0.00  0.00    10
  8 SEP  134 Harvest      10094   0.51  27.9  171  1.7  0.00  0.00  0.00  0.00    10


*MAIN GROWTH AND DEVELOPMENT VARIABLES

@     VARIABLE                                         SIMULATED     MEASURED
      --------                                         ---------     --------
      Anthesis day (dap)                                      73          -99
      Physiological maturity day (dap)                       134          -99
      Yield at harvest maturity (kg [dm]/ha)                2126          -99
      Number at maturity (no/m2)                             896          -99
      Unit wt at maturity (g [dm]/unit)                   0.2374          -99
      Number at maturity (no/unit)                         144.5          -99
      Tops weight at maturity (kg [dm]/ha)                 10094          -99
      By-product produced (stalk) at maturity (kg[dm]/ha    8049          -99
      Leaf area index, maximum                              4.43          -99
      Harvest index at maturity                            0.211          -99
      Grain N at maturity (kg/ha)                             39          -99
      Tops N at maturity (kg/ha)                             171          -99
      Stem N at maturity (kg/ha)                             132          -99
      Grain N at maturity (%)                                1.8          -99
      Tops weight at anthesis (kg [dm]/ha)                  8235          -99
      Tops N at anthesis (kg/ha)                             171          -99
      Leaf number per stem at maturity                     27.92          -99
      Emergence day (dap)                                      6          -99


*ENVIRONMENTAL AND STRESS FACTORS

 |-----Development Phase------|--------------------------------------Environment--------------------------------------|-----------------Stress-----------------|
                              |---------------Average--------------|-----Cumulative-----|--------Count of days--------|          (0=Min, 1=Max Stress)         |
                         Time  Temp  Temp  Temp Solar Photop                Evapo    Pot TMIN TMIN TMAX TMAX TMAX RAIN|----Water----|---Nitrogen--|-Phosphorus-|
                         Span   Max   Min  Mean   Rad  [day]    CO2   Rain  Trans     ET   <    <    >    >    >    >   Photo         Photo         Photo
                         days    邂    邂    邂 MJ/m2     hr    ppm     mm     mm     mm  0邂  2邂 30邂 32邂 34邂  0mm  synth Growth  synth Growth  synth Growth
----------------------------------------------------------------------------------------------------------------------------------------------------------------
 Emergence-End Juvenile    17  30.7  18.7  24.7  15.7  24.00  363.5   54.0   42.6   73.6    0    0   12    4    0    7  0.000  0.000  0.002  0.005  0.000  0.000
 End Juvenil-Floral Init    8  30.0  19.2  24.6  14.2  24.00  363.5   30.0   21.4   29.4    0    0    4    1    0    3  0.000  0.000  0.000  0.001  0.000  0.000
 Floral Init-End Lf Grow   42  29.9  18.5  24.2  15.1  24.00  363.6  152.0  136.9  150.8    0    0   21    3    0   13  0.071  0.111  0.010  0.024  0.000  0.000
 End Lf Grth-Beg Grn Fil    9  31.9  18.3  25.1  18.0  24.00  363.7    3.0   10.8   39.0    0    0    8    2    1    1  0.778  0.852  0.000  0.000  0.000  0.000
 Grain Filling Phase       49  33.3  18.0  25.7  18.3  23.47  363.9   74.1   75.7  230.6    0    0   48   39   15    7  0.678  0.725  0.000  0.000  0.000  0.000


 Planting to Harvest      134  31.5  18.4  24.9  16.7  23.66  363.7  354.1  309.8  566.8    0    0   98   52   16   33  0.323  0.357  0.003  0.008  0.000  0.000
----------------------------------------------------------------------------------------------------------------------------------------------------------------


*Resource Productivity
 Growing season length: 134 days 

 Precipitation during growing season       354.1 mm[rain]
   Dry Matter Productivity                  2.85 kg[DM]/m3[rain]          =   28.5 kg[DM]/ha per mm[rain]
   Yield Productivity                       0.60 kg[grain yield]/m3[rain] =    6.0 kg[yield]/ha per mm[rain]

 Evapotranspiration during growing season  309.8 mm[ET]
   Dry Matter Productivity                  3.26 kg[DM]/m3[ET]            =   32.6 kg[DM]/ha per mm[ET]
   Yield Productivity                       0.69 kg[grain yield]/m3[ET]   =    6.9 kg[yield]/ha per mm[ET]

 Transpiration during growing season       191.3 mm[EP]
   Dry Matter Productivity                  5.28 kg[DM]/m3[EP]            =   52.8 kg[DM]/ha per mm[EP]
   Yield Productivity                       1.11 kg[grain yield]/m3[EP]   =   11.1 kg[yield]/ha per mm[EP]

 N applied during growing season            161. kg[N applied]/ha
   Dry Matter Productivity                  62.7 kg[DM]/kg[N applied]
   Yield Productivity                       13.2 kg[yield]/kg[N applied]

 N uptake during growing season              186 kg[N uptake]/ha
   Dry Matter Productivity                  54.3 kg[DM]/kg[N uptake]
   Yield Productivity                       11.4 kg[yield]/kg[N uptake]

--------------------------------------------------------------------------------------------------------------

                     Maize YIELD :     2126 kg/ha    [Dry weight] 

**************************************************************************************************************

*DSSAT Cropping System Model Ver. 4.6.1.000 -release      OCT 24, 2017; 10:41:00
                                                                                
*RUN   7        : P05/02                    MZCER046 ANBU1997    7              
 MODEL          : MZCER046 - Maize                                              
 EXPERIMENT     : ANBU1997 MZ  Analisis a침os de bajo rendimiento Buga          
 DATA PATH      : C:\DSSAT46\maize\                                             
 TREATMENT  7   : P05/02                    MZCER046                            
                                                                                
                                                                                
 CROP           : Maize            CULTIVAR : DK234            ECOTYPE :IB0001  
 STARTING DATE  : APR  2 1997                                                   
 PLANTING DATE  : MAY  2 1997        PLANTS/m2 :  6.2     ROW SPACING :  80.cm  
 WEATHER        : CUNI   1997                                                   
 SOIL           : CCBUGA2017     TEXTURE : CL    -   Suelo Buga MADR Fase I     
 SOIL INITIAL C : DEPTH: 90cm EXTR. H2O: 83.9mm  NO3:  0.0kg/ha  NH4:  0.0kg/ha 
 WATER BALANCE  : RAINFED                                                       
 IRRIGATION     : NOT IRRIGATED                                                 
 NITROGEN BAL.  : SOIL-N & N-UPTAKE SIMULATION; NO N-FIXATION                   
 N-FERTILIZER   :      161 kg/ha IN     5 APPLICATIONS                          
 RESIDUE/MANURE : INITIAL :     0 kg/ha ;       0 kg/ha IN     0 APPLICATIONS   
 ENVIRONM. OPT. : DAYL=    0.00  SRAD=    0.00  TMAX=    0.00  TMIN=    0.00    
                  RAIN=    0.00  CO2 =    0.00  DEW =    0.00  WIND=    0.00    
 SIMULATION OPT : WATER   :Y  NITROGEN:Y  N-FIX:N  PHOSPH :N  PESTS  :N         
                  PHOTO   :C  ET      :R  INFIL:S  HYDROL :R  SOM    :G         
                  CO2 363ppm  NSWIT   :1  EVAP :S  SOIL   :2  STEMP  :D         
 MANAGEMENT OPT : PLANTING:R  IRRIG   :N  FERT :D  RESIDUE:R  HARVEST:M         
                  WEATHER :M  TILLAGE :N                                        
                                                                                
*SUMMARY OF SOIL AND GENETIC INPUT PARAMETERS                                   
                                                                                
   SOIL LOWER UPPER   SAT  EXTR  INIT   ROOT   BULK     pH    NO3    NH4    ORG 
  DEPTH LIMIT LIMIT    SW    SW    SW   DIST   DENS                          C  
   cm   cm3/cm3    cm3/cm3    cm3/cm3         g/cm3         ugN/g  ugN/g     %  
------------------------------------------------------------------------------- 
  0-  5 0.215 0.331 0.341 0.116 0.331   1.00   1.68   6.70   0.00   0.00   0.75 
  5- 15 0.215 0.331 0.341 0.116 0.331   1.00   1.68   6.70   0.00   0.00   0.75 
 15- 25 0.215 0.331 0.341 0.116 0.331   1.00   1.68   6.70   0.00   0.00   0.75 
 25- 35 0.181 0.291 0.364 0.110 0.291   0.50   1.61   7.20   0.00   0.00   0.53 
 35- 45 0.181 0.291 0.364 0.110 0.291   0.50   1.61   7.20   0.00   0.00   0.53 
 45- 67 0.096 0.169 0.404 0.073 0.169   0.27   1.51   7.00   0.00   0.00   0.05 
 67- 90 0.096 0.169 0.404 0.073 0.169   0.27   1.51   7.00   0.00   0.00   0.05 
                                                                                
TOT- 90  13.3  21.7  34.0   8.4  21.7  <--cm   -  kg/ha-->    0.0    0.0  51964 
SOIL ALBEDO    : 0.09      EVAPORATION LIMIT : 6.00         MIN. FACTOR  : 1.00 
RUNOFF CURVE # :76.00      DRAINAGE RATE     : 0.60         FERT. FACTOR : 1.00 
                                                                                
 Maize      CULTIVAR :CI0002-DK234              ECOTYPE :IB0001                 
 P1     : 300.00  P2     : 0.4000  P5     :1075.00                              
 G2     : 890.00  G3     :  7.750  PHINT  : 40.000                              


*SIMULATED CROP AND SOIL STATUS AT MAIN DEVELOPMENT STAGES

 RUN NO.     7     P05/02                  

        CROP GROWTH     BIOMASS         LEAF   CROP N     STRESS      STRESS                                           
   DATE  AGE STAGE        kg/ha    LAI   NUM  kg/ha  %   H2O  Nitr Phos1 Phos2  RSTG                                   
 ------  --- ----------   -----  -----  ----  ---  ---  ----  ----  ----  ----  ----                                   
  2 APR    0 Start Sim        0   0.00   0.0    0  0.0  0.00  0.00  0.00  0.00     7
  2 MAY    0 Sowing           0   0.00   0.0    0  0.0  0.00  0.00  0.00  0.00     8
  3 MAY    1 Germinate        0   0.00   0.0    0  0.0  0.00  0.00  0.00  0.00     9
  8 MAY    6 Emergence       25   0.00   2.2    1  4.4  0.00  0.01  0.00  0.00     1
 25 MAY   23 End Juveni     309   0.57  10.2   11  3.4  0.00  0.00  0.00  0.00     2
  2 JUN   31 Floral Ini     865   1.30  13.4   30  3.5  0.01  0.00  0.00  0.00     3
 13 JUL   72 75% Silkin    7135   3.04  27.5  160  2.2  0.27  0.02  0.00  0.00     4
 23 JUL   82 Beg Gr Fil    7048   1.98  27.5  160  2.3  0.89  0.00  0.00  0.00     5
  9 SEP  130 End Gr Fil    8689   0.47  27.5  160  1.8  0.63  0.00  0.00  0.00     6
 12 SEP  133 Maturity      8689   0.47  27.5  160  1.8  0.00  0.00  0.00  0.00    10
 12 SEP  133 Harvest       8689   0.47  27.5  160  1.8  0.00  0.00  0.00  0.00    10


*MAIN GROWTH AND DEVELOPMENT VARIABLES

@     VARIABLE                                         SIMULATED     MEASURED
      --------                                         ---------     --------
      Anthesis day (dap)                                      72          -99
      Physiological maturity day (dap)                       133          -99
      Yield at harvest maturity (kg [dm]/ha)                1787          -99
      Number at maturity (no/m2)                             721          -99
      Unit wt at maturity (g [dm]/unit)                   0.2479          -99
      Number at maturity (no/unit)                         120.3          -99
      Tops weight at maturity (kg [dm]/ha)                  8689          -99
      By-product produced (stalk) at maturity (kg[dm]/ha    6982          -99
      Leaf area index, maximum                              4.01          -99
      Harvest index at maturity                            0.206          -99
      Grain N at maturity (kg/ha)                             32          -99
      Tops N at maturity (kg/ha)                             160          -99
      Stem N at maturity (kg/ha)                             126          -99
      Grain N at maturity (%)                                1.8          -99
      Tops weight at anthesis (kg [dm]/ha)                  7099          -99
      Tops N at anthesis (kg/ha)                             159          -99
      Leaf number per stem at maturity                     27.49          -99
      Emergence day (dap)                                      6          -99


*ENVIRONMENTAL AND STRESS FACTORS

 |-----Development Phase------|--------------------------------------Environment--------------------------------------|-----------------Stress-----------------|
                              |---------------Average--------------|-----Cumulative-----|--------Count of days--------|          (0=Min, 1=Max Stress)         |
                         Time  Temp  Temp  Temp Solar Photop                Evapo    Pot TMIN TMIN TMAX TMAX TMAX RAIN|----Water----|---Nitrogen--|-Phosphorus-|
                         Span   Max   Min  Mean   Rad  [day]    CO2   Rain  Trans     ET   <    <    >    >    >    >   Photo         Photo         Photo
                         days    邂    邂    邂 MJ/m2     hr    ppm     mm     mm     mm  0邂  2邂 30邂 32邂 34邂  0mm  synth Growth  synth Growth  synth Growth
----------------------------------------------------------------------------------------------------------------------------------------------------------------
 Emergence-End Juvenile    17  30.7  19.0  24.9  15.7  24.00  363.5   52.0   45.9   73.7    0    0   12    3    0    6  0.000  0.000  0.002  0.005  0.000  0.000
 End Juvenil-Floral Init    8  28.8  19.2  24.0  11.9  24.00  363.5   18.0   19.9   24.3    0    0    2    0    0    2  0.000  0.012  0.000  0.001  0.000  0.000
 Floral Init-End Lf Grow   41  30.0  18.4  24.2  15.8  24.00  363.6  152.0  123.1  153.9    0    0   22    3    0   13  0.177  0.249  0.008  0.021  0.000  0.000
 End Lf Grth-Beg Grn Fil   10  33.7  18.0  25.8  18.6  24.00  363.8    3.0   12.1   46.4    0    0   10    7    4    1  0.832  0.888  0.000  0.000  0.000  0.000
 Grain Filling Phase       48  32.9  18.1  25.5  18.0  22.90  363.9  116.1   77.8  224.3    0    0   45   35   12   10  0.605  0.647  0.000  0.000  0.000  0.000


 Planting to Harvest      133  31.5  18.4  24.9  16.5  23.42  363.7  355.1  291.3  561.1    0    0   99   51   16   34  0.336  0.378  0.003  0.007  0.000  0.000
----------------------------------------------------------------------------------------------------------------------------------------------------------------


*Resource Productivity
 Growing season length: 133 days 

 Precipitation during growing season       355.1 mm[rain]
   Dry Matter Productivity                  2.45 kg[DM]/m3[rain]          =   24.5 kg[DM]/ha per mm[rain]
   Yield Productivity                       0.50 kg[grain yield]/m3[rain] =    5.0 kg[yield]/ha per mm[rain]

 Evapotranspiration during growing season  291.3 mm[ET]
   Dry Matter Productivity                  2.98 kg[DM]/m3[ET]            =   29.8 kg[DM]/ha per mm[ET]
   Yield Productivity                       0.61 kg[grain yield]/m3[ET]   =    6.1 kg[yield]/ha per mm[ET]

 Transpiration during growing season       171.1 mm[EP]
   Dry Matter Productivity                  5.08 kg[DM]/m3[EP]            =   50.8 kg[DM]/ha per mm[EP]
   Yield Productivity                       1.04 kg[grain yield]/m3[EP]   =   10.4 kg[yield]/ha per mm[EP]

 N applied during growing season            161. kg[N applied]/ha
   Dry Matter Productivity                  54.0 kg[DM]/kg[N applied]
   Yield Productivity                       11.1 kg[yield]/kg[N applied]

 N uptake during growing season              173 kg[N uptake]/ha
   Dry Matter Productivity                  50.2 kg[DM]/kg[N uptake]
   Yield Productivity                       10.3 kg[yield]/kg[N uptake]

--------------------------------------------------------------------------------------------------------------

                     Maize YIELD :     1787 kg/ha    [Dry weight] 

**************************************************************************************************************

*DSSAT Cropping System Model Ver. 4.6.1.000 -release      OCT 24, 2017; 10:41:00
                                                                                
*RUN   8        : P05/07                    MZCER046 ANBU1997    8              
 MODEL          : MZCER046 - Maize                                              
 EXPERIMENT     : ANBU1997 MZ  Analisis a침os de bajo rendimiento Buga          
 DATA PATH      : C:\DSSAT46\maize\                                             
 TREATMENT  8   : P05/07                    MZCER046                            
                                                                                
                                                                                
 CROP           : Maize            CULTIVAR : DK234            ECOTYPE :IB0001  
 STARTING DATE  : APR  7 1997                                                   
 PLANTING DATE  : MAY  7 1997        PLANTS/m2 :  6.2     ROW SPACING :  80.cm  
 WEATHER        : CUNI   1997                                                   
 SOIL           : CCBUGA2017     TEXTURE : CL    -   Suelo Buga MADR Fase I     
 SOIL INITIAL C : DEPTH: 90cm EXTR. H2O: 83.9mm  NO3:  0.0kg/ha  NH4:  0.0kg/ha 
 WATER BALANCE  : RAINFED                                                       
 IRRIGATION     : NOT IRRIGATED                                                 
 NITROGEN BAL.  : SOIL-N & N-UPTAKE SIMULATION; NO N-FIXATION                   
 N-FERTILIZER   :      161 kg/ha IN     5 APPLICATIONS                          
 RESIDUE/MANURE : INITIAL :     0 kg/ha ;       0 kg/ha IN     0 APPLICATIONS   
 ENVIRONM. OPT. : DAYL=    0.00  SRAD=    0.00  TMAX=    0.00  TMIN=    0.00    
                  RAIN=    0.00  CO2 =    0.00  DEW =    0.00  WIND=    0.00    
 SIMULATION OPT : WATER   :Y  NITROGEN:Y  N-FIX:N  PHOSPH :N  PESTS  :N         
                  PHOTO   :C  ET      :R  INFIL:S  HYDROL :R  SOM    :G         
                  CO2 363ppm  NSWIT   :1  EVAP :S  SOIL   :2  STEMP  :D         
 MANAGEMENT OPT : PLANTING:R  IRRIG   :N  FERT :D  RESIDUE:R  HARVEST:M         
                  WEATHER :M  TILLAGE :N                                        
                                                                                
*SUMMARY OF SOIL AND GENETIC INPUT PARAMETERS                                   
                                                                                
   SOIL LOWER UPPER   SAT  EXTR  INIT   ROOT   BULK     pH    NO3    NH4    ORG 
  DEPTH LIMIT LIMIT    SW    SW    SW   DIST   DENS                          C  
   cm   cm3/cm3    cm3/cm3    cm3/cm3         g/cm3         ugN/g  ugN/g     %  
------------------------------------------------------------------------------- 
  0-  5 0.215 0.331 0.341 0.116 0.331   1.00   1.68   6.70   0.00   0.00   0.75 
  5- 15 0.215 0.331 0.341 0.116 0.331   1.00   1.68   6.70   0.00   0.00   0.75 
 15- 25 0.215 0.331 0.341 0.116 0.331   1.00   1.68   6.70   0.00   0.00   0.75 
 25- 35 0.181 0.291 0.364 0.110 0.291   0.50   1.61   7.20   0.00   0.00   0.53 
 35- 45 0.181 0.291 0.364 0.110 0.291   0.50   1.61   7.20   0.00   0.00   0.53 
 45- 67 0.096 0.169 0.404 0.073 0.169   0.27   1.51   7.00   0.00   0.00   0.05 
 67- 90 0.096 0.169 0.404 0.073 0.169   0.27   1.51   7.00   0.00   0.00   0.05 
                                                                                
TOT- 90  13.3  21.7  34.0   8.4  21.7  <--cm   -  kg/ha-->    0.0    0.0  51964 
SOIL ALBEDO    : 0.09      EVAPORATION LIMIT : 6.00         MIN. FACTOR  : 1.00 
RUNOFF CURVE # :76.00      DRAINAGE RATE     : 0.60         FERT. FACTOR : 1.00 
                                                                                
 Maize      CULTIVAR :CI0002-DK234              ECOTYPE :IB0001                 
 P1     : 300.00  P2     : 0.4000  P5     :1075.00                              
 G2     : 890.00  G3     :  7.750  PHINT  : 40.000                              


*SIMULATED CROP AND SOIL STATUS AT MAIN DEVELOPMENT STAGES

 RUN NO.     8     P05/07                  

        CROP GROWTH     BIOMASS         LEAF   CROP N     STRESS      STRESS                                           
   DATE  AGE STAGE        kg/ha    LAI   NUM  kg/ha  %   H2O  Nitr Phos1 Phos2  RSTG                                   
 ------  --- ----------   -----  -----  ----  ---  ---  ----  ----  ----  ----  ----                                   
  7 APR    0 Start Sim        0   0.00   0.0    0  0.0  0.00  0.00  0.00  0.00     7
  7 MAY    0 Sowing           0   0.00   0.0    0  0.0  0.00  0.00  0.00  0.00     8
  8 MAY    1 Germinate        0   0.00   0.0    0  0.0  0.00  0.00  0.00  0.00     9
 13 MAY    6 Emergence       25   0.00   2.2    1  4.4  0.00  0.01  0.00  0.00     1
 30 MAY   23 End Juveni     230   0.44  10.0    8  3.5  0.00  0.00  0.00  0.00     2
  7 JUN   31 Floral Ini     664   1.04  13.2   24  3.6  0.00  0.00  0.00  0.00     3
 17 JUL   71 75% Silkin    6089   2.44  27.1  111  1.8  0.36  0.07  0.00  0.00     4
 26 JUL   80 Beg Gr Fil    6011   1.65  27.1  111  1.8  0.90  0.08  0.00  0.00     5
 13 SEP  129 End Gr Fil    7723   0.45  27.1  109  1.4  0.56  0.00  0.00  0.00     6
 16 SEP  132 Maturity      7723   0.45  27.1  109  1.4  0.00  0.00  0.00  0.00    10
[...]
 NITROGEN BAL.  : SOIL-N & N-UPTAKE SIMULATION; NO N-FIXATION                   
 N-FERTILIZER   :      161 kg/ha IN     5 APPLICATIONS                          
 RESIDUE/MANURE : INITIAL :     0 kg/ha ;       0 kg/ha IN     0 APPLICATIONS   
 ENVIRONM. OPT. : DAYL=    0.00  SRAD=    0.00  TMAX=    0.00  TMIN=    0.00    
                  RAIN=    0.00  CO2 =    0.00  DEW =    0.00  WIND=    0.00    
 SIMULATION OPT : WATER   :Y  NITROGEN:Y  N-FIX:N  PHOSPH :N  PESTS  :N         
                  PHOTO   :C  ET      :R  INFIL:S  HYDROL :R  SOM    :G         
                  CO2 364ppm  NSWIT   :1  EVAP :S  SOIL   :2  STEMP  :D         
 MANAGEMENT OPT : PLANTING:R  IRRIG   :N  FERT :D  RESIDUE:R  HARVEST:M         
                  WEATHER :M  TILLAGE :N                                        
                                                                                
*SUMMARY OF SOIL AND GENETIC INPUT PARAMETERS                                   
                                                                                
   SOIL LOWER UPPER   SAT  EXTR  INIT   ROOT   BULK     pH    NO3    NH4    ORG 
  DEPTH LIMIT LIMIT    SW    SW    SW   DIST   DENS                          C  
   cm   cm3/cm3    cm3/cm3    cm3/cm3         g/cm3         ugN/g  ugN/g     %  
------------------------------------------------------------------------------- 
  0-  5 0.215 0.331 0.341 0.116 0.331   1.00   1.68   6.70   0.00   0.00   0.75 
  5- 15 0.215 0.331 0.341 0.116 0.331   1.00   1.68   6.70   0.00   0.00   0.75 
 15- 25 0.215 0.331 0.341 0.116 0.331   1.00   1.68   6.70   0.00   0.00   0.75 
 25- 35 0.181 0.291 0.364 0.110 0.291   0.50   1.61   7.20   0.00   0.00   0.53 
 35- 45 0.181 0.291 0.364 0.110 0.291   0.50   1.61   7.20   0.00   0.00   0.53 
 45- 67 0.096 0.169 0.404 0.073 0.169   0.27   1.51   7.00   0.00   0.00   0.05 
 67- 90 0.096 0.169 0.404 0.073 0.169   0.27   1.51   7.00   0.00   0.00   0.05 
                                                                                
TOT- 90  13.3  21.7  34.0   8.4  21.7  <--cm   -  kg/ha-->    0.0    0.0  51964 
SOIL ALBEDO    : 0.09      EVAPORATION LIMIT : 6.00         MIN. FACTOR  : 1.00 
RUNOFF CURVE # :76.00      DRAINAGE RATE     : 0.60         FERT. FACTOR : 1.00 
                                                                                
 Maize      CULTIVAR :CI0002-DK234              ECOTYPE :IB0001                 
 P1     : 300.00  P2     : 0.4000  P5     :1075.00                              
 G2     : 890.00  G3     :  7.750  PHINT  : 40.000                              


*SIMULATED CROP AND SOIL STATUS AT MAIN DEVELOPMENT STAGES

 RUN NO.    35     P12/14                  

        CROP GROWTH     BIOMASS         LEAF   CROP N     STRESS      STRESS                                           
   DATE  AGE STAGE        kg/ha    LAI   NUM  kg/ha  %   H2O  Nitr Phos1 Phos2  RSTG                                   
 ------  --- ----------   -----  -----  ----  ---  ---  ----  ----  ----  ----  ----                                   
 14 NOV    0 Start Sim        0   0.00   0.0    0  0.0  0.00  0.00  0.00  0.00     7
 14 DEC    0 Sowing           0   0.00   0.0    0  0.0  0.00  0.00  0.00  0.00     8
 15 DEC    1 Germinate        0   0.00   0.0    0  0.0  0.00  0.00  0.00  0.00     9
 20 DEC    6 Emergence       25   0.00   2.2    1  4.4  0.00  0.01  0.00  0.00     1
  5 JAN   22 End Juveni     325   0.59  10.3    9  2.7  0.11  0.01  0.00  0.00     2
  9 JAN   26 Floral Ini     510   0.81  12.0   11  2.1  0.00  0.34  0.00  0.00     3
 12 FEB   60 75% Silkin    2497   1.00  24.8   54  2.2  0.60  0.27  0.00  0.00     4
 22 FEB   70 Beg Gr Fil    3417   0.86  24.8   55  1.6  0.40  0.00  0.00  0.00     5
 11 APR  118 End Gr Fil    4676   0.23  24.8   55  1.2  0.57  0.00  0.00  0.00     6
 15 APR  122 Maturity      4676   0.23  24.8   55  1.2  0.00  0.00  0.00  0.00    10
 15 APR  122 Harvest       4676   0.23  24.8   55  1.2  0.00  0.00  0.00  0.00    10


*MAIN GROWTH AND DEVELOPMENT VARIABLES

@     VARIABLE                                         SIMULATED     MEASURED
      --------                                         ---------     --------
      Anthesis day (dap)                                      60          -99
      Physiological maturity day (dap)                       122          -99
      Yield at harvest maturity (kg [dm]/ha)                1885          -99
      Number at maturity (no/m2)                            1424          -99
      Unit wt at maturity (g [dm]/unit)                   0.1324          -99
      Number at maturity (no/unit)                         229.7          -99
      Tops weight at maturity (kg [dm]/ha)                  4676          -99
      By-product produced (stalk) at maturity (kg[dm]/ha    2828          -99
      Leaf area index, maximum                              1.22          -99
      Harvest index at maturity                            0.403          -99
      Grain N at maturity (kg/ha)                             34          -99
      Tops N at maturity (kg/ha)                              55          -99
      Stem N at maturity (kg/ha)                              21          -99
      Grain N at maturity (%)                                1.8          -99
      Tops weight at anthesis (kg [dm]/ha)                  2406          -99
      Tops N at anthesis (kg/ha)                              53          -99
      Leaf number per stem at maturity                     24.85          -99
      Emergence day (dap)                                      6          -99


*ENVIRONMENTAL AND STRESS FACTORS

 |-----Development Phase------|--------------------------------------Environment--------------------------------------|-----------------Stress-----------------|
                              |---------------Average--------------|-----Cumulative-----|--------Count of days--------|          (0=Min, 1=Max Stress)         |
                         Time  Temp  Temp  Temp Solar Photop                Evapo    Pot TMIN TMIN TMAX TMAX TMAX RAIN|----Water----|---Nitrogen--|-Phosphorus-|
                         Span   Max   Min  Mean   Rad  [day]    CO2   Rain  Trans     ET   <    <    >    >    >    >   Photo         Photo         Photo
                         days    邂    邂    邂 MJ/m2     hr    ppm     mm     mm     mm  0邂  2邂 30邂 32邂 34邂  0mm  synth Growth  synth Growth  synth Growth
----------------------------------------------------------------------------------------------------------------------------------------------------------------
 Emergence-End Juvenile    16  33.1  18.2  25.6  18.0   0.00  364.9    9.0   17.3   80.0    0    0   16   12    2    1  0.000  0.108  0.002  0.004  0.000  0.000
 End Juvenil-Floral Init    4  31.9  18.5  25.2  14.8   0.00  364.9    0.0    7.7   15.8    0    0    3    2    1    0  0.000  0.000  0.105  0.261  0.000  0.000
 Floral Init-End Lf Grow   34  33.3  19.1  26.2  18.1   0.00  365.1   35.0   60.8  161.1    0    0   31   28    8    6  0.485  0.600  0.118  0.280  0.000  0.000
 End Lf Grth-Beg Grn Fil   10  32.3  18.8  25.6  17.9   0.00  365.4   21.0   27.9   46.7    0    0    7    6    1    2  0.228  0.319  0.000  0.000  0.000  0.000
 Grain Filling Phase       48  32.0  19.1  25.6  16.9   9.84  365.6  113.1   68.7  219.6    0    0   39   26    4   17  0.554  0.592  0.000  0.000  0.000  0.000


 Planting to Harvest      122  32.4  19.0  25.7  17.3   4.57  365.3  232.1  201.5  566.2    0    0  102   76   16   29  0.372  0.440  0.037  0.087  0.000  0.000
----------------------------------------------------------------------------------------------------------------------------------------------------------------


*Resource Productivity
 Growing season length: 122 days 

 Precipitation during growing season       232.1 mm[rain]
   Dry Matter Productivity                  2.01 kg[DM]/m3[rain]          =   20.1 kg[DM]/ha per mm[rain]
   Yield Productivity                       0.81 kg[grain yield]/m3[rain] =    8.1 kg[yield]/ha per mm[rain]

 Evapotranspiration during growing season  201.5 mm[ET]
   Dry Matter Productivity                  2.32 kg[DM]/m3[ET]            =   23.2 kg[DM]/ha per mm[ET]
   Yield Productivity                       0.94 kg[grain yield]/m3[ET]   =    9.4 kg[yield]/ha per mm[ET]

 Transpiration during growing season        89.2 mm[EP]
   Dry Matter Productivity                  5.24 kg[DM]/m3[EP]            =   52.4 kg[DM]/ha per mm[EP]
   Yield Productivity                       2.11 kg[grain yield]/m3[EP]   =   21.1 kg[yield]/ha per mm[EP]

 N applied during growing season            161. kg[N applied]/ha
   Dry Matter Productivity                  29.0 kg[DM]/kg[N applied]
   Yield Productivity                       11.7 kg[yield]/kg[N applied]

 N uptake during growing season               60 kg[N uptake]/ha
   Dry Matter Productivity                  77.9 kg[DM]/kg[N uptake]
   Yield Productivity                       31.4 kg[yield]/kg[N uptake]

--------------------------------------------------------------------------------------------------------------

                     Maize YIELD :     1885 kg/ha    [Dry weight] 

**************************************************************************************************************

*DSSAT Cropping System Model Ver. 4.6.1.000 -release      OCT 24, 2017; 10:41:04
                                                                                
*RUN  36        : P12/19                    MZCER046 ANBU1997   36              
 MODEL          : MZCER046 - Maize                                              
 EXPERIMENT     : ANBU1997 MZ  Analisis a침os de bajo rendimiento Buga          
 DATA PATH      : C:\DSSAT46\maize\                                             
 TREATMENT 36   : P12/19                    MZCER046                            
                                                                                
                                                                                
 CROP           : Maize            CULTIVAR : DK234            ECOTYPE :IB0001  
 STARTING DATE  : NOV 19 1997                                                   
 PLANTING DATE  : DEC 19 1997        PLANTS/m2 :  6.2     ROW SPACING :  80.cm  
 WEATHER        : CUNI   1997                                                   
 SOIL           : CCBUGA2017     TEXTURE : CL    -   Suelo Buga MADR Fase I     
 SOIL INITIAL C : DEPTH: 90cm EXTR. H2O: 83.9mm  NO3:  0.0kg/ha  NH4:  0.0kg/ha 
 WATER BALANCE  : RAINFED                                                       
 IRRIGATION     : NOT IRRIGATED                                                 
 NITROGEN BAL.  : SOIL-N & N-UPTAKE SIMULATION; NO N-FIXATION                   
 N-FERTILIZER   :      161 kg/ha IN     5 APPLICATIONS                          
 RESIDUE/MANURE : INITIAL :     0 kg/ha ;       0 kg/ha IN     0 APPLICATIONS   
 ENVIRONM. OPT. : DAYL=    0.00  SRAD=    0.00  TMAX=    0.00  TMIN=    0.00    
                  RAIN=    0.00  CO2 =    0.00  DEW =    0.00  WIND=    0.00    
 SIMULATION OPT : WATER   :Y  NITROGEN:Y  N-FIX:N  PHOSPH :N  PESTS  :N         
                  PHOTO   :C  ET      :R  INFIL:S  HYDROL :R  SOM    :G         
                  CO2 365ppm  NSWIT   :1  EVAP :S  SOIL   :2  STEMP  :D         
 MANAGEMENT OPT : PLANTING:R  IRRIG   :N  FERT :D  RESIDUE:R  HARVEST:M         
                  WEATHER :M  TILLAGE :N                                        
                                                                                
*SUMMARY OF SOIL AND GENETIC INPUT PARAMETERS                                   
                                                                                
   SOIL LOWER UPPER   SAT  EXTR  INIT   ROOT   BULK     pH    NO3    NH4    ORG 
  DEPTH LIMIT LIMIT    SW    SW    SW   DIST   DENS                          C  
   cm   cm3/cm3    cm3/cm3    cm3/cm3         g/cm3         ugN/g  ugN/g     %  
------------------------------------------------------------------------------- 
  0-  5 0.215 0.331 0.341 0.116 0.331   1.00   1.68   6.70   0.00   0.00   0.75 
  5- 15 0.215 0.331 0.341 0.116 0.331   1.00   1.68   6.70   0.00   0.00   0.75 
 15- 25 0.215 0.331 0.341 0.116 0.331   1.00   1.68   6.70   0.00   0.00   0.75 
 25- 35 0.181 0.291 0.364 0.110 0.291   0.50   1.61   7.20   0.00   0.00   0.53 
 35- 45 0.181 0.291 0.364 0.110 0.291   0.50   1.61   7.20   0.00   0.00   0.53 
 45- 67 0.096 0.169 0.404 0.073 0.169   0.27   1.51   7.00   0.00   0.00   0.05 
 67- 90 0.096 0.169 0.404 0.073 0.169   0.27   1.51   7.00   0.00   0.00   0.05 
                                                                                
TOT- 90  13.3  21.7  34.0   8.4  21.7  <--cm   -  kg/ha-->    0.0    0.0  51964 
SOIL ALBEDO    : 0.09      EVAPORATION LIMIT : 6.00         MIN. FACTOR  : 1.00 
RUNOFF CURVE # :76.00      DRAINAGE RATE     : 0.60         FERT. FACTOR : 1.00 
                                                                                
 Maize      CULTIVAR :CI0002-DK234              ECOTYPE :IB0001                 
 P1     : 300.00  P2     : 0.4000  P5     :1075.00                              
 G2     : 890.00  G3     :  7.750  PHINT  : 40.000                              


*SIMULATED CROP AND SOIL STATUS AT MAIN DEVELOPMENT STAGES

 RUN NO.    36     P12/19                  

        CROP GROWTH     BIOMASS         LEAF   CROP N     STRESS      STRESS                                           
   DATE  AGE STAGE        kg/ha    LAI   NUM  kg/ha  %   H2O  Nitr Phos1 Phos2  RSTG                                   
 ------  --- ----------   -----  -----  ----  ---  ---  ----  ----  ----  ----  ----                                   
 19 NOV    0 Start Sim        0   0.00   0.0    0  0.0  0.00  0.00  0.00  0.00     7
 19 DEC    0 Sowing           0   0.00   0.0    0  0.0  0.00  0.00  0.00  0.00     8
 20 DEC    1 Germinate        0   0.00   0.0    0  0.0  0.00  0.00  0.00  0.00     9
 25 DEC    6 Emergence       25   0.00   2.2    1  4.4  0.00  0.01  0.00  0.00     1
 10 JAN   22 End Juveni     303   0.56  10.2    9  2.8  0.12  0.00  0.00  0.00     2
 14 JAN   26 Floral Ini     559   0.89  12.1   21  3.7  0.00  0.23  0.00  0.00     3
 17 FEB   60 75% Silkin    3595   1.48  25.3   74  2.0  0.53  0.27  0.00  0.00     4
 27 FEB   70 Beg Gr Fil    3820   1.02  25.3   74  1.9  0.82  0.00  0.00  0.00     5
 17 APR  119 End Gr Fil    5536   0.31  25.3   74  1.3  0.49  0.00  0.00  0.00     6
 20 APR  122 Maturity      5536   0.31  25.3   74  1.3  0.00  0.00  0.00  0.00    10
 20 APR  122 Harvest       5536   0.31  25.3   74  1.3  0.00  0.00  0.00  0.00    10


*MAIN GROWTH AND DEVELOPMENT VARIABLES

@     VARIABLE                                         SIMULATED     MEASURED
      --------                                         ---------     --------
      Anthesis day (dap)                                      60          -99
      Physiological maturity day (dap)                       122          -99
      Yield at harvest maturity (kg [dm]/ha)                2466          -99
      Number at maturity (no/m2)                             992          -99
      Unit wt at maturity (g [dm]/unit)                   0.2486          -99
      Number at maturity (no/unit)                         160.0          -99
      Tops weight at maturity (kg [dm]/ha)                  5536          -99
      By-product produced (stalk) at maturity (kg[dm]/ha    3112          -99
      Leaf area index, maximum                              1.48          -99
      Harvest index at maturity                            0.446          -99
      Grain N at maturity (kg/ha)                             44          -99
      Tops N at maturity (kg/ha)                              74          -99
      Stem N at maturity (kg/ha)                              29          -99
      Grain N at maturity (%)                                1.8          -99
      Tops weight at anthesis (kg [dm]/ha)                  3337          -99
      Tops N at anthesis (kg/ha)                              71          -99
      Leaf number per stem at maturity                     25.26          -99
      Emergence day (dap)                                      6          -99


*ENVIRONMENTAL AND STRESS FACTORS

 |-----Development Phase------|--------------------------------------Environment--------------------------------------|-----------------Stress-----------------|
                              |---------------Average--------------|-----Cumulative-----|--------Count of days--------|          (0=Min, 1=Max Stress)         |
                         Time  Temp  Temp  Temp Solar Photop                Evapo    Pot TMIN TMIN TMAX TMAX TMAX RAIN|----Water----|---Nitrogen--|-Phosphorus-|
                         Span   Max   Min  Mean   Rad  [day]    CO2   Rain  Trans     ET   <    <    >    >    >    >   Photo         Photo         Photo
                         days    邂    邂    邂 MJ/m2     hr    ppm     mm     mm     mm  0邂  2邂 30邂 32邂 34邂  0mm  synth Growth  synth Growth  synth Growth
----------------------------------------------------------------------------------------------------------------------------------------------------------------
 Emergence-End Juvenile    16  32.9  18.5  25.7  17.2   0.00  364.9    9.0   16.8   76.7    0    0   15   12    3    1  0.023  0.122  0.002  0.004  0.000  0.000
 End Juvenil-Floral Init    4  33.0  18.7  25.8  17.8   0.00  364.9    8.0    8.3   19.1    0    0    3    3    1    1  0.000  0.000  0.095  0.236  0.000  0.000
 Floral Init-End Lf Grow   34  33.0  19.2  26.1  18.0   0.00  365.2   48.0   76.1  158.7    0    0   29   26    7    7  0.397  0.520  0.137  0.274  0.000  0.000
 End Lf Grth-Beg Grn Fil   10  33.4  19.4  26.4  18.6   0.00  365.5    0.0   17.3   48.1    0    0   10    7    1    0  0.646  0.761  0.000  0.000  0.000  0.000
 Grain Filling Phase       49  31.6  19.0  25.3  16.7  12.37  365.6  164.5   85.7  219.3    0    0   37   24    4   20  0.488  0.510  0.000  0.000  0.000  0.000


 Planting to Harvest      122  32.3  19.0  25.7  17.3   5.56  365.4  250.3  214.3  562.6    0    0  101   76   16   32  0.363  0.428  0.042  0.085  0.000  0.000
----------------------------------------------------------------------------------------------------------------------------------------------------------------


*Resource Productivity
 Growing season length: 122 days 

 Precipitation during growing season       250.3 mm[rain]
   Dry Matter Productivity                  2.21 kg[DM]/m3[rain]          =   22.1 kg[DM]/ha per mm[rain]
   Yield Productivity                       0.99 kg[grain yield]/m3[rain] =    9.9 kg[yield]/ha per mm[rain]

 Evapotranspiration during growing season  214.3 mm[ET]
   Dry Matter Productivity                  2.58 kg[DM]/m3[ET]            =   25.8 kg[DM]/ha per mm[ET]
   Yield Productivity                       1.15 kg[grain yield]/m3[ET]   =   11.5 kg[yield]/ha per mm[ET]

 Transpiration during growing season        99.5 mm[EP]
   Dry Matter Productivity                  5.57 kg[DM]/m3[EP]            =   55.7 kg[DM]/ha per mm[EP]
   Yield Productivity                       2.48 kg[grain yield]/m3[EP]   =   24.8 kg[yield]/ha per mm[EP]

 N applied during growing season            161. kg[N applied]/ha
   Dry Matter Productivity                  34.4 kg[DM]/kg[N applied]
   Yield Productivity                       15.3 kg[yield]/kg[N applied]

 N uptake during growing season               80 kg[N uptake]/ha
   Dry Matter Productivity                  69.2 kg[DM]/kg[N uptake]
   Yield Productivity                       30.8 kg[yield]/kg[N uptake]

--------------------------------------------------------------------------------------------------------------

                     Maize YIELD :     2466 kg/ha    [Dry weight] 

**************************************************************************************************************
