*SIMULATION OVERVIEW FILE

*DSSAT Cropping System Model Ver. 4.6.1.000 -release      OCT 24, 2017; 10:45:43
                                                                                
*RUN   1        : P04/02                    MZCER046 ANBU2002    1              
 MODEL          : MZCER046 - Maize                                              
 EXPERIMENT     : ANBU2002 MZ  Analisis a침os de bajo rendimiento Buga          
 DATA PATH      : C:\DSSAT46\maize\                                             
 TREATMENT  1   : P04/02                    MZCER046                            
                                                                                
                                                                                
 CROP           : Maize            CULTIVAR : DK234            ECOTYPE :IB0001  
 STARTING DATE  : MAR  3 2002                                                   
 PLANTING DATE  : APR  2 2002        PLANTS/m2 :  6.2     ROW SPACING :  80.cm  
 WEATHER        : CUNI   2002                                                   
 SOIL           : CCBUGA2017     TEXTURE : CL    -   Suelo Buga MADR Fase I     
 SOIL INITIAL C : DEPTH: 90cm EXTR. H2O: 83.9mm  NO3:  0.0kg/ha  NH4:  0.0kg/ha 
 WATER BALANCE  : RAINFED                                                       
 IRRIGATION     : NOT IRRIGATED                                                 
 NITROGEN BAL.  : SOIL-N & N-UPTAKE SIMULATION; NO N-FIXATION                   
 N-FERTILIZER   :      161 kg/ha IN     5 APPLICATIONS                          
 RESIDUE/MANURE : INITIAL :     0 kg/ha ;       0 kg/ha IN     0 APPLICATIONS   
 ENVIRONM. OPT. : DAYL=    0.00  SRAD=    0.00  TMAX=    0.00  TMIN=    0.00    
                  RAIN=    0.00  CO2 =    0.00  DEW =    0.00  WIND=    0.00    
 SIMULATION OPT : WATER   :Y  NITROGEN:Y  N-FIX:N  PHOSPH :N  PESTS  :N         
                  PHOTO   :C  ET      :R  INFIL:S  HYDROL :R  SOM    :G         
                  CO2 372ppm  NSWIT   :1  EVAP :S  SOIL   :2  STEMP  :D         
 MANAGEMENT OPT : PLANTING:R  IRRIG   :N  FERT :D  RESIDUE:R  HARVEST:M         
                  WEATHER :M  TILLAGE :N                                        
                                                                                
*SUMMARY OF SOIL AND GENETIC INPUT PARAMETERS                                   
                                                                                
   SOIL LOWER UPPER   SAT  EXTR  INIT   ROOT   BULK     pH    NO3    NH4    ORG 
  DEPTH LIMIT LIMIT    SW    SW    SW   DIST   DENS                          C  
   cm   cm3/cm3    cm3/cm3    cm3/cm3         g/cm3         ugN/g  ugN/g     %  
------------------------------------------------------------------------------- 
  0-  5 0.215 0.331 0.341 0.116 0.331   1.00   1.68   6.70   0.00   0.00   0.75 
  5- 15 0.215 0.331 0.341 0.116 0.331   1.00   1.68   6.70   0.00   0.00   0.75 
 15- 25 0.215 0.331 0.341 0.116 0.331   1.00   1.68   6.70   0.00   0.00   0.75 
 25- 35 0.181 0.291 0.364 0.110 0.291   0.50   1.61   7.20   0.00   0.00   0.53 
 35- 45 0.181 0.291 0.364 0.110 0.291   0.50   1.61   7.20   0.00   0.00   0.53 
 45- 67 0.096 0.169 0.404 0.073 0.169   0.27   1.51   7.00   0.00   0.00   0.05 
 67- 90 0.096 0.169 0.404 0.073 0.169   0.27   1.51   7.00   0.00   0.00   0.05 
                                                                                
TOT- 90  13.3  21.7  34.0   8.4  21.7  <--cm   -  kg/ha-->    0.0    0.0  51964 
SOIL ALBEDO    : 0.09      EVAPORATION LIMIT : 6.00         MIN. FACTOR  : 1.00 
RUNOFF CURVE # :76.00      DRAINAGE RATE     : 0.60         FERT. FACTOR : 1.00 
                                                                                
 Maize      CULTIVAR :CI0002-DK234              ECOTYPE :IB0001                 
 P1     : 300.00  P2     : 0.4000  P5     :1075.00                              
 G2     : 890.00  G3     :  7.750  PHINT  : 40.000                              


*SIMULATED CROP AND SOIL STATUS AT MAIN DEVELOPMENT STAGES

 RUN NO.     1     P04/02                  

        CROP GROWTH     BIOMASS         LEAF   CROP N     STRESS      STRESS                                           
   DATE  AGE STAGE        kg/ha    LAI   NUM  kg/ha  %   H2O  Nitr Phos1 Phos2  RSTG                                   
 ------  --- ----------   -----  -----  ----  ---  ---  ----  ----  ----  ----  ----                                   
  3 MAR    0 Start Sim        0   0.00   0.0    0  0.0  0.00  0.00  0.00  0.00     7
  2 APR    0 Sowing           0   0.00   0.0    0  0.0  0.00  0.00  0.00  0.00     8
  3 APR    1 Germinate        0   0.00   0.0    0  0.0  0.00  0.00  0.00  0.00     9
  8 APR    6 Emergence       25   0.00   2.2    1  4.4  0.00  0.01  0.00  0.00     1
 25 APR   23 End Juveni     340   0.61  10.1   12  3.5  0.01  0.00  0.00  0.00     2
  2 MAY   30 Floral Ini     805   1.23  13.0   29  3.6  0.00  0.00  0.00  0.00     3
 11 JUN   70 75% Silkin    7110   3.21  26.8  146  2.1  0.14  0.14  0.00  0.00     4
 21 JUN   80 Beg Gr Fil    9132   2.96  26.8  147  1.6  0.21  0.00  0.00  0.00     5
 11 AUG  131 End Gr Fil   10574   0.36  26.8  147  1.4  0.84  0.00  0.00  0.00     6
 14 AUG  134 Maturity     10574   0.36  26.8  147  1.4  0.66  0.00  0.00  0.00    10
 14 AUG  134 Harvest      10574   0.36  26.8  147  1.4  0.00  0.00  0.00  0.00    10


*MAIN GROWTH AND DEVELOPMENT VARIABLES

@     VARIABLE                                         SIMULATED     MEASURED
      --------                                         ---------     --------
      Anthesis day (dap)                                      70          -99
      Physiological maturity day (dap)                       134          -99
      Yield at harvest maturity (kg [dm]/ha)                2947          -99
      Number at maturity (no/m2)                            2808          -99
      Unit wt at maturity (g [dm]/unit)                   0.1050          -99
      Number at maturity (no/unit)                         452.9          -99
      Tops weight at maturity (kg [dm]/ha)                 10574          -99
      By-product produced (stalk) at maturity (kg[dm]/ha    7702          -99
      Leaf area index, maximum                              3.36          -99
      Harvest index at maturity                            0.279          -99
      Grain N at maturity (kg/ha)                             55          -99
      Tops N at maturity (kg/ha)                             147          -99
      Stem N at maturity (kg/ha)                              92          -99
      Grain N at maturity (%)                                1.9          -99
      Tops weight at anthesis (kg [dm]/ha)                  6825          -99
      Tops N at anthesis (kg/ha)                             143          -99
      Leaf number per stem at maturity                     26.85          -99
      Emergence day (dap)                                      6          -99


*ENVIRONMENTAL AND STRESS FACTORS

 |-----Development Phase------|--------------------------------------Environment--------------------------------------|-----------------Stress-----------------|
                              |---------------Average--------------|-----Cumulative-----|--------Count of days--------|          (0=Min, 1=Max Stress)         |
                         Time  Temp  Temp  Temp Solar Photop                Evapo    Pot TMIN TMIN TMAX TMAX TMAX RAIN|----Water----|---Nitrogen--|-Phosphorus-|
                         Span   Max   Min  Mean   Rad  [day]    CO2   Rain  Trans     ET   <    <    >    >    >    >   Photo         Photo         Photo
                         days    邂    邂    邂 MJ/m2     hr    ppm     mm     mm     mm  0邂  2邂 30邂 32邂 34邂  0mm  synth Growth  synth Growth  synth Growth
----------------------------------------------------------------------------------------------------------------------------------------------------------------
 Emergence-End Juvenile    17  30.2  19.5  24.9  14.1  22.48  372.4   90.0   40.9   66.1    0    0   10    4    0    8  0.000  0.014  0.002  0.005  0.000  0.000
 End Juvenil-Floral Init    7  28.9  19.5  24.2  14.6  24.00  372.5   25.0   26.2   26.2    0    0    3    0    0    5  0.000  0.000  0.000  0.001  0.000  0.000
 Floral Init-End Lf Grow   40  29.3  19.3  24.3  14.6  24.00  372.6  104.2  122.7  139.6    0    0   16    3    0   16  0.095  0.142  0.057  0.137  0.000  0.000
 End Lf Grth-Beg Grn Fil   10  30.9  18.8  24.9  18.5  24.00  372.8    7.0   39.2   44.0    0    0    8    3    0    2  0.099  0.133  0.000  0.000  0.000  0.000
 Grain Filling Phase       51  30.6  18.6  24.6  17.8  24.00  373.0   45.4   55.2  229.3    0    0   33   13    2   10  0.820  0.856  0.000  0.000  0.000  0.000


 Planting to Harvest      134  30.1  19.0  24.5  16.3  23.49  372.8  329.0  315.0  548.2    0    0   76   24    3   45  0.355  0.389  0.017  0.042  0.000  0.000
----------------------------------------------------------------------------------------------------------------------------------------------------------------


*Resource Productivity
 Growing season length: 134 days 

 Precipitation during growing season       329.0 mm[rain]
   Dry Matter Productivity                  3.21 kg[DM]/m3[rain]          =   32.1 kg[DM]/ha per mm[rain]
   Yield Productivity                       0.90 kg[grain yield]/m3[rain] =    9.0 kg[yield]/ha per mm[rain]

 Evapotranspiration during growing season  315.0 mm[ET]
   Dry Matter Productivity                  3.36 kg[DM]/m3[ET]            =   33.6 kg[DM]/ha per mm[ET]
   Yield Productivity                       0.94 kg[grain yield]/m3[ET]   =    9.4 kg[yield]/ha per mm[ET]

 Transpiration during growing season       172.0 mm[EP]
   Dry Matter Productivity                  6.15 kg[DM]/m3[EP]            =   61.5 kg[DM]/ha per mm[EP]
   Yield Productivity                       1.71 kg[grain yield]/m3[EP]   =   17.1 kg[yield]/ha per mm[EP]

 N applied during growing season            161. kg[N applied]/ha
   Dry Matter Productivity                  65.7 kg[DM]/kg[N applied]
   Yield Productivity                       18.3 kg[yield]/kg[N applied]

 N uptake during growing season              159 kg[N uptake]/ha
   Dry Matter Productivity                  66.5 kg[DM]/kg[N uptake]
   Yield Productivity                       18.5 kg[yield]/kg[N uptake]

--------------------------------------------------------------------------------------------------------------

                     Maize YIELD :     2947 kg/ha    [Dry weight] 

**************************************************************************************************************

*DSSAT Cropping System Model Ver. 4.6.1.000 -release      OCT 24, 2017; 10:45:44
                                                                                
*RUN   2        : P04/07                    MZCER046 ANBU2002    2              
 MODEL          : MZCER046 - Maize                                              
 EXPERIMENT     : ANBU2002 MZ  Analisis a침os de bajo rendimiento Buga          
 DATA PATH      : C:\DSSAT46\maize\                                             
 TREATMENT  2   : P04/07                    MZCER046                            
                                                                                
                                                                                
 CROP           : Maize            CULTIVAR : DK234            ECOTYPE :IB0001  
 STARTING DATE  : MAR  8 2002                                                   
 PLANTING DATE  : APR  7 2002        PLANTS/m2 :  6.2     ROW SPACING :  80.cm  
 WEATHER        : CUNI   2002                                                   
 SOIL           : CCBUGA2017     TEXTURE : CL    -   Suelo Buga MADR Fase I     
 SOIL INITIAL C : DEPTH: 90cm EXTR. H2O: 83.9mm  NO3:  0.0kg/ha  NH4:  0.0kg/ha 
 WATER BALANCE  : RAINFED                                                       
 IRRIGATION     : NOT IRRIGATED                                                 
 NITROGEN BAL.  : SOIL-N & N-UPTAKE SIMULATION; NO N-FIXATION                   
 N-FERTILIZER   :      161 kg/ha IN     5 APPLICATIONS                          
 RESIDUE/MANURE : INITIAL :     0 kg/ha ;       0 kg/ha IN     0 APPLICATIONS   
 ENVIRONM. OPT. : DAYL=    0.00  SRAD=    0.00  TMAX=    0.00  TMIN=    0.00    
                  RAIN=    0.00  CO2 =    0.00  DEW =    0.00  WIND=    0.00    
 SIMULATION OPT : WATER   :Y  NITROGEN:Y  N-FIX:N  PHOSPH :N  PESTS  :N         
                  PHOTO   :C  ET      :R  INFIL:S  HYDROL :R  SOM    :G         
                  CO2 372ppm  NSWIT   :1  EVAP :S  SOIL   :2  STEMP  :D         
 MANAGEMENT OPT : PLANTING:R  IRRIG   :N  FERT :D  RESIDUE:R  HARVEST:M         
                  WEATHER :M  TILLAGE :N                                        
                                                                                
*SUMMARY OF SOIL AND GENETIC INPUT PARAMETERS                                   
                                                                                
   SOIL LOWER UPPER   SAT  EXTR  INIT   ROOT   BULK     pH    NO3    NH4    ORG 
  DEPTH LIMIT LIMIT    SW    SW    SW   DIST   DENS                          C  
   cm   cm3/cm3    cm3/cm3    cm3/cm3         g/cm3         ugN/g  ugN/g     %  
------------------------------------------------------------------------------- 
  0-  5 0.215 0.331 0.341 0.116 0.331   1.00   1.68   6.70   0.00   0.00   0.75 
  5- 15 0.215 0.331 0.341 0.116 0.331   1.00   1.68   6.70   0.00   0.00   0.75 
 15- 25 0.215 0.331 0.341 0.116 0.331   1.00   1.68   6.70   0.00   0.00   0.75 
 25- 35 0.181 0.291 0.364 0.110 0.291   0.50   1.61   7.20   0.00   0.00   0.53 
 35- 45 0.181 0.291 0.364 0.110 0.291   0.50   1.61   7.20   0.00   0.00   0.53 
 45- 67 0.096 0.169 0.404 0.073 0.169   0.27   1.51   7.00   0.00   0.00   0.05 
 67- 90 0.096 0.169 0.404 0.073 0.169   0.27   1.51   7.00   0.00   0.00   0.05 
                                                                                
TOT- 90  13.3  21.7  34.0   8.4  21.7  <--cm   -  kg/ha-->    0.0    0.0  51964 
SOIL ALBEDO    : 0.09      EVAPORATION LIMIT : 6.00         MIN. FACTOR  : 1.00 
RUNOFF CURVE # :76.00      DRAINAGE RATE     : 0.60         FERT. FACTOR : 1.00 
                                                                                
 Maize      CULTIVAR :CI0002-DK234              ECOTYPE :IB0001                 
 P1     : 300.00  P2     : 0.4000  P5     :1075.00                              
 G2     : 890.00  G3     :  7.750  PHINT  : 40.000                              


*SIMULATED CROP AND SOIL STATUS AT MAIN DEVELOPMENT STAGES

 RUN NO.     2     P04/07                  

        CROP GROWTH     BIOMASS         LEAF   CROP N     STRESS      STRESS                                           
   DATE  AGE STAGE        kg/ha    LAI   NUM  kg/ha  %   H2O  Nitr Phos1 Phos2  RSTG                                   
 ------  --- ----------   -----  -----  ----  ---  ---  ----  ----  ----  ----  ----                                   
  8 MAR    0 Start Sim        0   0.00   0.0    0  0.0  0.00  0.00  0.00  0.00     7
  7 APR    0 Sowing           0   0.00   0.0    0  0.0  0.00  0.00  0.00  0.00     8
  8 APR    1 Germinate        0   0.00   0.0    0  0.0  0.00  0.00  0.00  0.00     9
 13 APR    6 Emergence       25   0.00   2.2    1  4.4  0.00  0.01  0.00  0.00     1
 30 APR   23 End Juveni     225   0.43  10.0    8  3.3  0.00  0.00  0.00  0.00     2
  8 MAY   31 Floral Ini     820   1.22  13.3   19  2.3  0.00  0.08  0.00  0.00     3
 17 JUN   71 75% Silkin    7171   3.25  27.2  143  2.0  0.12  0.14  0.00  0.00     4
 28 JUN   82 Beg Gr Fil    7926   2.32  27.2  144  1.8  0.71  0.00  0.00  0.00     5
 18 AUG  133 End Gr Fil    9281   0.31  27.2  144  1.6  0.83  0.00  0.00  0.00     6
 21 AUG  136 Maturity      9281   0.31  27.2  144  1.6  0.86  0.00  0.00  0.00    10
 21 AUG  136 Harvest       9281   0.31  27.2  144  1.6  0.00  0.00  0.00  0.00    10


*MAIN GROWTH AND DEVELOPMENT VARIABLES

@     VARIABLE                                         SIMULATED     MEASURED
      --------                                         ---------     --------
      Anthesis day (dap)                                      71          -99
      Physiological maturity day (dap)                       136          -99
      Yield at harvest maturity (kg [dm]/ha)                2717          -99
      Number at maturity (no/m2)                            1505          -99
      Unit wt at maturity (g [dm]/unit)                   0.1806          -99
      Number at maturity (no/unit)                         242.7          -99
      Tops weight at maturity (kg [dm]/ha)                  9281          -99
      By-product produced (stalk) at maturity (kg[dm]/ha    6636          -99
      Leaf area index, maximum                              3.25          -99
      Harvest index at maturity                            0.293          -99
      Grain N at maturity (kg/ha)                             51          -99
      Tops N at maturity (kg/ha)                             144          -99
      Stem N at maturity (kg/ha)                              94          -99
      Grain N at maturity (%)                                1.9          -99
      Tops weight at anthesis (kg [dm]/ha)                  6985          -99
      Tops N at anthesis (kg/ha)                             143          -99
      Leaf number per stem at maturity                     27.20          -99
      Emergence day (dap)                                      6          -99


*ENVIRONMENTAL AND STRESS FACTORS

 |-----Development Phase------|--------------------------------------Environment--------------------------------------|-----------------Stress-----------------|
                              |---------------Average--------------|-----Cumulative-----|--------Count of days--------|          (0=Min, 1=Max Stress)         |
                         Time  Temp  Temp  Temp Solar Photop                Evapo    Pot TMIN TMIN TMAX TMAX TMAX RAIN|----Water----|---Nitrogen--|-Phosphorus-|
                         Span   Max   Min  Mean   Rad  [day]    CO2   Rain  Trans     ET   <    <    >    >    >    >   Photo         Photo         Photo
                         days    邂    邂    邂 MJ/m2     hr    ppm     mm     mm     mm  0邂  2邂 30邂 32邂 34邂  0mm  synth Growth  synth Growth  synth Growth
----------------------------------------------------------------------------------------------------------------------------------------------------------------
 Emergence-End Juvenile    17  29.5  19.6  24.6  14.6  23.81  372.5   81.0   39.8   68.4    0    0    8    2    0   11  0.000  0.000  0.002  0.005  0.000  0.000
 End Juvenil-Floral Init    8  28.7  19.5  24.1  15.1  24.00  372.5    0.0   23.6   31.0    0    0    3    0    0    0  0.000  0.000  0.015  0.037  0.000  0.000
 Floral Init-End Lf Grow   40  29.9  19.2  24.5  15.1  24.00  372.7  111.2  127.7  146.5    0    0   20    6    0   18  0.081  0.121  0.071  0.145  0.000  0.000
 End Lf Grth-Beg Grn Fil   11  29.3  19.0  24.2  17.3  24.00  372.9    0.0   23.4   44.7    0    0    5    0    0    0  0.532  0.628  0.000  0.000  0.000  0.000
 Grain Filling Phase       51  30.8  18.4  24.6  18.4  24.00  373.1   45.4   55.2  239.9    0    0   35   15    3   10  0.790  0.830  0.000  0.000  0.000  0.000


 Planting to Harvest      136  30.2  18.9  24.5  16.3  23.76  372.8  271.6  292.1  563.2    0    0   78   27    4   41  0.380  0.416  0.022  0.046  0.000  0.000
----------------------------------------------------------------------------------------------------------------------------------------------------------------


*Resource Productivity
 Growing season length: 136 days 

 Precipitation during growing season       271.6 mm[rain]
   Dry Matter Productivity                  3.42 kg[DM]/m3[rain]          =   34.2 kg[DM]/ha per mm[rain]
   Yield Productivity                       1.00 kg[grain yield]/m3[rain] =   10.0 kg[yield]/ha per mm[rain]

 Evapotranspiration during growing season  292.1 mm[ET]
   Dry Matter Productivity                  3.18 kg[DM]/m3[ET]            =   31.8 kg[DM]/ha per mm[ET]
   Yield Productivity                       0.93 kg[grain yield]/m3[ET]   =    9.3 kg[yield]/ha per mm[ET]

 Transpiration during growing season       152.4 mm[EP]
   Dry Matter Productivity                  6.09 kg[DM]/m3[EP]            =   60.9 kg[DM]/ha per mm[EP]
   Yield Productivity                       1.78 kg[grain yield]/m3[EP]   =   17.8 kg[yield]/ha per mm[EP]

 N applied during growing season            161. kg[N applied]/ha
   Dry Matter Productivity                  57.6 kg[DM]/kg[N applied]
   Yield Productivity                       16.9 kg[yield]/kg[N applied]

 N uptake during growing season              155 kg[N uptake]/ha
   Dry Matter Productivity                  59.9 kg[DM]/kg[N uptake]
   Yield Productivity                       17.5 kg[yield]/kg[N uptake]

--------------------------------------------------------------------------------------------------------------

                     Maize YIELD :     2717 kg/ha    [Dry weight] 

**************************************************************************************************************

*DSSAT Cropping System Model Ver. 4.6.1.000 -release      OCT 24, 2017; 10:45:44
                                                                                
*RUN   3        : P04/12                    MZCER046 ANBU2002    3              
 MODEL          : MZCER046 - Maize                                              
 EXPERIMENT     : ANBU2002 MZ  Analisis a침os de bajo rendimiento Buga          
 DATA PATH      : C:\DSSAT46\maize\                                             
 TREATMENT  3   : P04/12                    MZCER046                            
                                                                                
                                                                                
 CROP           : Maize            CULTIVAR : DK234            ECOTYPE :IB0001  
 STARTING DATE  : MAR 13 2002                                                   
 PLANTING DATE  : APR 12 2002        PLANTS/m2 :  6.2     ROW SPACING :  80.cm  
 WEATHER        : CUNI   2002                                                   
 SOIL           : CCBUGA2017     TEXTURE : CL    -   Suelo Buga MADR Fase I     
 SOIL INITIAL C : DEPTH: 90cm EXTR. H2O: 83.9mm  NO3:  0.0kg/ha  NH4:  0.0kg/ha 
 WATER BALANCE  : RAINFED                                                       
 IRRIGATION     : NOT IRRIGATED                                                 
 NITROGEN BAL.  : SOIL-N & N-UPTAKE SIMULATION; NO N-FIXATION                   
 N-FERTILIZER   :      161 kg/ha IN     5 APPLICATIONS                          
 RESIDUE/MANURE : INITIAL :     0 kg/ha ;       0 kg/ha IN     0 APPLICATIONS   
 ENVIRONM. OPT. : DAYL=    0.00  SRAD=    0.00  TMAX=    0.00  TMIN=    0.00    
                  RAIN=    0.00  CO2 =    0.00  DEW =    0.00  WIND=    0.00    
 SIMULATION OPT : WATER   :Y  NITROGEN:Y  N-FIX:N  PHOSPH :N  PESTS  :N         
                  PHOTO   :C  ET      :R  INFIL:S  HYDROL :R  SOM    :G         
                  CO2 372ppm  NSWIT   :1  EVAP :S  SOIL   :2  STEMP  :D         
 MANAGEMENT OPT : PLANTING:R  IRRIG   :N  FERT :D  RESIDUE:R  HARVEST:M         
                  WEATHER :M  TILLAGE :N                                        
                                                                                
*SUMMARY OF SOIL AND GENETIC INPUT PARAMETERS                                   
                                                                                
   SOIL LOWER UPPER   SAT  EXTR  INIT   ROOT   BULK     pH    NO3    NH4    ORG 
  DEPTH LIMIT LIMIT    SW    SW    SW   DIST   DENS                          C  
   cm   cm3/cm3    cm3/cm3    cm3/cm3         g/cm3         ugN/g  ugN/g     %  
------------------------------------------------------------------------------- 
  0-  5 0.215 0.331 0.341 0.116 0.331   1.00   1.68   6.70   0.00   0.00   0.75 
  5- 15 0.215 0.331 0.341 0.116 0.331   1.00   1.68   6.70   0.00   0.00   0.75 
 15- 25 0.215 0.331 0.341 0.116 0.331   1.00   1.68   6.70   0.00   0.00   0.75 
 25- 35 0.181 0.291 0.364 0.110 0.291   0.50   1.61   7.20   0.00   0.00   0.53 
 35- 45 0.181 0.291 0.364 0.110 0.291   0.50   1.61   7.20   0.00   0.00   0.53 
 45- 67 0.096 0.169 0.404 0.073 0.169   0.27   1.51   7.00   0.00   0.00   0.05 
 67- 90 0.096 0.169 0.404 0.073 0.169   0.27   1.51   7.00   0.00   0.00   0.05 
                                                                                
TOT- 90  13.3  21.7  34.0   8.4  21.7  <--cm   -  kg/ha-->    0.0    0.0  51964 
SOIL ALBEDO    : 0.09      EVAPORATION LIMIT : 6.00         MIN. FACTOR  : 1.00 
RUNOFF CURVE # :76.00      DRAINAGE RATE     : 0.60         FERT. FACTOR : 1.00 
                                                                                
 Maize      CULTIVAR :CI0002-DK234              ECOTYPE :IB0001                 
 P1     : 300.00  P2     : 0.4000  P5     :1075.00                              
 G2     : 890.00  G3     :  7.750  PHINT  : 40.000                              


*SIMULATED CROP AND SOIL STATUS AT MAIN DEVELOPMENT STAGES

 RUN NO.     3     P04/12                  

        CROP GROWTH     BIOMASS         LEAF   CROP N     STRESS      STRESS                                           
   DATE  AGE STAGE        kg/ha    LAI   NUM  kg/ha  %   H2O  Nitr Phos1 Phos2  RSTG                                   
 ------  --- ----------   -----  -----  ----  ---  ---  ----  ----  ----  ----  ----                                   
 13 MAR    0 Start Sim        0   0.00   0.0    0  0.0  0.00  0.00  0.00  0.00     7
 12 APR    0 Sowing           0   0.00   0.0    0  0.0  0.00  0.00  0.00  0.00     8
 13 APR    1 Germinate        0   0.00   0.0    0  0.0  0.00  0.00  0.00  0.00     9
 18 APR    6 Emergence       25   0.00   2.1    1  4.4  0.00  0.01  0.00  0.00     1
  6 MAY   24 End Juveni     274   0.51  10.2    9  3.2  0.00  0.00  0.00  0.00     2
 14 MAY   32 Floral Ini     697   0.99  13.5   13  1.9  0.00  0.35  0.00  0.00     3
 24 JUN   73 75% Silkin    7167   3.04  28.0  155  2.2  0.21  0.06  0.00  0.00     4
  4 JUL   83 Beg Gr Fil    7337   2.11  28.0  155  2.1  0.78  0.00  0.00  0.00     5
 24 AUG  134 End Gr Fil    8723   0.29  28.0  155  1.8  0.83  0.00  0.00  0.00     6
 27 AUG  137 Maturity      8723   0.29  28.0  155  1.8  0.84  0.00  0.00  0.00    10
 27 AUG  137 Harvest       8723   0.29  28.0  155  1.8  0.00  0.00  0.00  0.00    10


*MAIN GROWTH AND DEVELOPMENT VARIABLES

@     VARIABLE                                         SIMULATED     MEASURED
      --------                                         ---------     --------
      Anthesis day (dap)                                      73          -99
      Physiological maturity day (dap)                       137          -99
      Yield at harvest maturity (kg [dm]/ha)                2124          -99
      Number at maturity (no/m2)                             938          -99
      Unit wt at maturity (g [dm]/unit)                   0.2264          -99
      Number at maturity (no/unit)                         151.3          -99
      Tops weight at maturity (kg [dm]/ha)                  8723          -99
      By-product produced (stalk) at maturity (kg[dm]/ha    6671          -99
      Leaf area index, maximum                              3.55          -99
      Harvest index at maturity                            0.244          -99
      Grain N at maturity (kg/ha)                             40          -99
      Tops N at maturity (kg/ha)                             155          -99
      Stem N at maturity (kg/ha)                             115          -99
      Grain N at maturity (%)                                1.9          -99
      Tops weight at anthesis (kg [dm]/ha)                  7126          -99
      Tops N at anthesis (kg/ha)                             155          -99
      Leaf number per stem at maturity                     28.00          -99
      Emergence day (dap)                                      6          -99


*ENVIRONMENTAL AND STRESS FACTORS

 |-----Development Phase------|--------------------------------------Environment--------------------------------------|-----------------Stress-----------------|
                              |---------------Average--------------|-----Cumulative-----|--------Count of days--------|          (0=Min, 1=Max Stress)         |
                         Time  Temp  Temp  Temp Solar Photop                Evapo    Pot TMIN TMIN TMAX TMAX TMAX RAIN|----Water----|---Nitrogen--|-Phosphorus-|
                         Span   Max   Min  Mean   Rad  [day]    CO2   Rain  Trans     ET   <    <    >    >    >    >   Photo         Photo         Photo
                         days    邂    邂    邂 MJ/m2     hr    ppm     mm     mm     mm  0邂  2邂 30邂 32邂 34邂  0mm  synth Growth  synth Growth  synth Growth
----------------------------------------------------------------------------------------------------------------------------------------------------------------
 Emergence-End Juvenile    18  28.9  19.6  24.3  14.1  24.00  372.5   80.0   48.2   69.1    0    0    7    0    0   10  0.000  0.000  0.002  0.005  0.000  0.000
 End Juvenil-Floral Init    8  27.9  20.1  24.0  14.2  24.00  372.5    0.3   15.9   28.9    0    0    0    0    0    1  0.000  0.000  0.113  0.277  0.000  0.000
 Floral Init-End Lf Grow   41  30.1  19.1  24.6  15.6  24.00  372.8  110.9  127.5  154.8    0    0   24    6    0   17  0.142  0.185  0.042  0.075  0.000  0.000
 End Lf Grth-Beg Grn Fil   10  29.3  19.0  24.2  17.7  24.00  372.9    7.0   14.7   41.8    0    0    4    1    0    1  0.707  0.772  0.000  0.000  0.000  0.000
 Grain Filling Phase       51  31.0  18.3  24.7  18.3  24.00  373.1   38.4   55.9  239.6    0    0   36   17    4    9  0.777  0.830  0.000  0.000  0.000  0.000


 Planting to Harvest      137  30.2  18.9  24.6  16.6  23.95  372.9  245.1  273.4  576.9    0    0   78   26    4   42  0.402  0.440  0.019  0.039  0.000  0.000
----------------------------------------------------------------------------------------------------------------------------------------------------------------


*Resource Productivity
 Growing season length: 137 days 

 Precipitation during growing season       245.1 mm[rain]
   Dry Matter Productivity                  3.56 kg[DM]/m3[rain]          =   35.6 kg[DM]/ha per mm[rain]
   Yield Productivity                       0.87 kg[grain yield]/m3[rain] =    8.7 kg[yield]/ha per mm[rain]

 Evapotranspiration during growing season  273.4 mm[ET]
   Dry Matter Productivity                  3.19 kg[DM]/m3[ET]            =   31.9 kg[DM]/ha per mm[ET]
   Yield Productivity                       0.78 kg[grain yield]/m3[ET]   =    7.8 kg[yield]/ha per mm[ET]

 Transpiration during growing season       144.4 mm[EP]
   Dry Matter Productivity                  6.04 kg[DM]/m3[EP]            =   60.4 kg[DM]/ha per mm[EP]
   Yield Productivity                       1.47 kg[grain yield]/m3[EP]   =   14.7 kg[yield]/ha per mm[EP]

 N applied during growing season            161. kg[N applied]/ha
   Dry Matter Productivity                  54.2 kg[DM]/kg[N applied]
   Yield Productivity                       13.2 kg[yield]/kg[N applied]

 N uptake during growing season              166 kg[N uptake]/ha
   Dry Matter Productivity                  52.5 kg[DM]/kg[N uptake]
   Yield Productivity                       12.8 kg[yield]/kg[N uptake]

--------------------------------------------------------------------------------------------------------------

                     Maize YIELD :     2124 kg/ha    [Dry weight] 

**************************************************************************************************************

*DSSAT Cropping System Model Ver. 4.6.1.000 -release      OCT 24, 2017; 10:45:44
                                                                                
*RUN   4        : P04/17                    MZCER046 ANBU2002    4              
 MODEL          : MZCER046 - Maize                                              
 EXPERIMENT     : ANBU2002 MZ  Analisis a침os de bajo rendimiento Buga          
 DATA PATH      : C:\DSSAT46\maize\                                             
 TREATMENT  4   : P04/17                    MZCER046                            
                                                                                
                                                                                
 CROP           : Maize            CULTIVAR : DK234            ECOTYPE :IB0001  
 STARTING DATE  : MAR 18 2002                                                   
 PLANTING DATE  : APR 17 2002        PLANTS/m2 :  6.2     ROW SPACING :  80.cm  
 WEATHER        : CUNI   2002                                                   
 SOIL           : CCBUGA2017     TEXTURE : CL    -   Suelo Buga MADR Fase I     
 SOIL INITIAL C : DEPTH: 90cm EXTR. H2O: 83.9mm  NO3:  0.0kg/ha  NH4:  0.0kg/ha 
 WATER BALANCE  : RAINFED                                                       
 IRRIGATION     : NOT IRRIGATED                                                 
 NITROGEN BAL.  : SOIL-N & N-UPTAKE SIMULATION; NO N-FIXATION                   
 N-FERTILIZER   :      161 kg/ha IN     5 APPLICATIONS                          
 RESIDUE/MANURE : INITIAL :     0 kg/ha ;       0 kg/ha IN     0 APPLICATIONS   
 ENVIRONM. OPT. : DAYL=    0.00  SRAD=    0.00  TMAX=    0.00  TMIN=    0.00    
                  RAIN=    0.00  CO2 =    0.00  DEW =    0.00  WIND=    0.00    
 SIMULATION OPT : WATER   :Y  NITROGEN:Y  N-FIX:N  PHOSPH :N  PESTS  :N         
                  PHOTO   :C  ET      :R  INFIL:S  HYDROL :R  SOM    :G         
                  CO2 372ppm  NSWIT   :1  EVAP :S  SOIL   :2  STEMP  :D         
 MANAGEMENT OPT : PLANTING:R  IRRIG   :N  FERT :D  RESIDUE:R  HARVEST:M         
                  WEATHER :M  TILLAGE :N                                        
                                                                                
*SUMMARY OF SOIL AND GENETIC INPUT PARAMETERS                                   
                                                                                
   SOIL LOWER UPPER   SAT  EXTR  INIT   ROOT   BULK     pH    NO3    NH4    ORG 
  DEPTH LIMIT LIMIT    SW    SW    SW   DIST   DENS                          C  
   cm   cm3/cm3    cm3/cm3    cm3/cm3         g/cm3         ugN/g  ugN/g     %  
------------------------------------------------------------------------------- 
  0-  5 0.215 0.331 0.341 0.116 0.331   1.00   1.68   6.70   0.00   0.00   0.75 
  5- 15 0.215 0.331 0.341 0.116 0.331   1.00   1.68   6.70   0.00   0.00   0.75 
 15- 25 0.215 0.331 0.341 0.116 0.331   1.00   1.68   6.70   0.00   0.00   0.75 
 25- 35 0.181 0.291 0.364 0.110 0.291   0.50   1.61   7.20   0.00   0.00   0.53 
 35- 45 0.181 0.291 0.364 0.110 0.291   0.50   1.61   7.20   0.00   0.00   0.53 
 45- 67 0.096 0.169 0.404 0.073 0.169   0.27   1.51   7.00   0.00   0.00   0.05 
 67- 90 0.096 0.169 0.404 0.073 0.169   0.27   1.51   7.00   0.00   0.00   0.05 
                                                                                
TOT- 90  13.3  21.7  34.0   8.4  21.7  <--cm   -  kg/ha-->    0.0    0.0  51964 
SOIL ALBEDO    : 0.09      EVAPORATION LIMIT : 6.00         MIN. FACTOR  : 1.00 
RUNOFF CURVE # :76.00      DRAINAGE RATE     : 0.60         FERT. FACTOR : 1.00 
                                                                                
 Maize      CULTIVAR :CI0002-DK234              ECOTYPE :IB0001                 
 P1     : 300.00  P2     : 0.4000  P5     :1075.00                              
 G2     : 890.00  G3     :  7.750  PHINT  : 40.000                              


*SIMULATED CROP AND SOIL STATUS AT MAIN DEVELOPMENT STAGES

 RUN NO.     4     P04/17                  

        CROP GROWTH     BIOMASS         LEAF   CROP N     STRESS      STRESS                                           
   DATE  AGE STAGE        kg/ha    LAI   NUM  kg/ha  %   H2O  Nitr Phos1 Phos2  RSTG                                   
 ------  --- ----------   -----  -----  ----  ---  ---  ----  ----  ----  ----  ----                                   
 18 MAR    0 Start Sim        0   0.00   0.0    0  0.0  0.00  0.00  0.00  0.00     7
 17 APR    0 Sowing           0   0.00   0.0    0  0.0  0.00  0.00  0.00  0.00     8
 18 APR    1 Germinate        0   0.00   0.0    0  0.0  0.00  0.00  0.00  0.00     9
 23 APR    6 Emergence       25   0.00   2.2    1  4.4  0.00  0.01  0.00  0.00     1
 11 MAY   24 End Juveni     336   0.60  10.2    9  2.6  0.00  0.02  0.00  0.00     2
 19 MAY   32 Floral Ini     750   1.04  13.5   27  3.6  0.00  0.41  0.00  0.00     3
 28 JUN   72 75% Silkin    7430   3.45  27.6  159  2.1  0.23  0.00  0.00  0.00     4
  9 JUL   83 Beg Gr Fil    7874   2.37  27.6  159  2.0  0.75  0.00  0.00  0.00     5
 29 AUG  134 End Gr Fil    9332   0.31  27.6  159  1.7  0.83  0.00  0.00  0.00     6
  1 SEP  137 Maturity      9332   0.31  27.6  159  1.7  0.52  0.00  0.00  0.00    10
  1 SEP  137 Harvest       9332   0.31  27.6  159  1.7  0.00  0.00  0.00  0.00    10


*MAIN GROWTH AND DEVELOPMENT VARIABLES

@     VARIABLE                                         SIMULATED     MEASURED
      --------                                         ---------     --------
      Anthesis day (dap)                                      72          -99
      Physiological maturity day (dap)                       137          -99
      Yield at harvest maturity (kg [dm]/ha)                2658          -99
      Number at maturity (no/m2)                            1202          -99
      Unit wt at maturity (g [dm]/unit)                   0.2211          -99
      Number at maturity (no/unit)                         193.9          -99
      Tops weight at maturity (kg [dm]/ha)                  9332          -99
      By-product produced (stalk) at maturity (kg[dm]/ha    6751          -99
      Leaf area index, maximum                              3.85          -99
      Harvest index at maturity                            0.285          -99
      Grain N at maturity (kg/ha)                             50          -99
      Tops N at maturity (kg/ha)                             159          -99
      Stem N at maturity (kg/ha)                             109          -99
      Grain N at maturity (%)                                1.9          -99
      Tops weight at anthesis (kg [dm]/ha)                  7360          -99
      Tops N at anthesis (kg/ha)                             151          -99
      Leaf number per stem at maturity                     27.60          -99
      Emergence day (dap)                                      6          -99


*ENVIRONMENTAL AND STRESS FACTORS

 |-----Development Phase------|--------------------------------------Environment--------------------------------------|-----------------Stress-----------------|
                              |---------------Average--------------|-----Cumulative-----|--------Count of days--------|          (0=Min, 1=Max Stress)         |
                         Time  Temp  Temp  Temp Solar Photop                Evapo    Pot TMIN TMIN TMAX TMAX TMAX RAIN|----Water----|---Nitrogen--|-Phosphorus-|
                         Span   Max   Min  Mean   Rad  [day]    CO2   Rain  Trans     ET   <    <    >    >    >    >   Photo         Photo         Photo
                         days    邂    邂    邂 MJ/m2     hr    ppm     mm     mm     mm  0邂  2邂 30邂 32邂 34邂  0mm  synth Growth  synth Growth  synth Growth
----------------------------------------------------------------------------------------------------------------------------------------------------------------
 Emergence-End Juvenile    18  28.9  19.5  24.2  14.5  24.00  372.5   64.3   45.4   70.7    0    0    6    0    0    8  0.000  0.000  0.004  0.010  0.000  0.000
 End Juvenil-Floral Init    8  27.8  20.4  24.1  13.4  24.00  372.6    8.3   15.0   27.1    0    0    1    0    0    2  0.000  0.000  0.190  0.430  0.000  0.000
 Floral Init-End Lf Grow   40  30.2  18.9  24.5  16.1  24.00  372.8  102.6  134.4  154.8    0    0   24    6    0   15  0.127  0.209  0.001  0.004  0.000  0.000
 End Lf Grth-Beg Grn Fil   11  29.6  19.3  24.4  17.9  24.00  372.9   10.8   18.0   46.6    0    0    5    1    0    3  0.651  0.737  0.000  0.000  0.000  0.000
 Grain Filling Phase       51  31.1  18.4  24.8  18.2  24.00  373.2   46.3   54.7  238.1    0    0   37   17    4   12  0.801  0.842  0.000  0.000  0.000  0.000


 Planting to Harvest      137  30.2  18.9  24.5  16.6  23.95  372.9  251.5  282.6  572.4    0    0   78   26    4   44  0.393  0.440  0.012  0.027  0.000  0.000
----------------------------------------------------------------------------------------------------------------------------------------------------------------


*Resource Productivity
 Growing season length: 137 days 

 Precipitation during growing season       251.5 mm[rain]
   Dry Matter Productivity                  3.71 kg[DM]/m3[rain]          =   37.1 kg[DM]/ha per mm[rain]
   Yield Productivity                       1.06 kg[grain yield]/m3[rain] =   10.6 kg[yield]/ha per mm[rain]

 Evapotranspiration during growing season  282.6 mm[ET]
   Dry Matter Productivity                  3.30 kg[DM]/m3[ET]            =   33.0 kg[DM]/ha per mm[ET]
   Yield Productivity                       0.94 kg[grain yield]/m3[ET]   =    9.4 kg[yield]/ha per mm[ET]

 Transpiration during growing season       157.4 mm[EP]
   Dry Matter Productivity                  5.93 kg[DM]/m3[EP]            =   59.3 kg[DM]/ha per mm[EP]
   Yield Productivity                       1.69 kg[grain yield]/m3[EP]   =   16.9 kg[yield]/ha per mm[EP]

 N applied during growing season            161. kg[N applied]/ha
   Dry Matter Productivity                  58.0 kg[DM]/kg[N applied]
   Yield Productivity                       16.5 kg[yield]/kg[N applied]

 N uptake during growing season              173 kg[N uptake]/ha
   Dry Matter Productivity                  53.9 kg[DM]/kg[N uptake]
   Yield Productivity                       15.4 kg[yield]/kg[N uptake]

--------------------------------------------------------------------------------------------------------------

                     Maize YIELD :     2658 kg/ha    [Dry weight] 

**************************************************************************************************************

*DSSAT Cropping System Model Ver. 4.6.1.000 -release      OCT 24, 2017; 10:45:44
                                                                                
*RUN   5        : P04/22                    MZCER046 ANBU2002    5              
 MODEL          : MZCER046 - Maize                                              
 EXPERIMENT     : ANBU2002 MZ  Analisis a침os de bajo rendimiento Buga          
 DATA PATH      : C:\DSSAT46\maize\                                             
 TREATMENT  5   : P04/22                    MZCER046                            
                                                                                
                                                                                
 CROP           : Maize            CULTIVAR : DK234            ECOTYPE :IB0001  
 STARTING DATE  : MAR 23 2002                                                   
 PLANTING DATE  : APR 22 2002        PLANTS/m2 :  6.2     ROW SPACING :  80.cm  
 WEATHER        : CUNI   2002                                                   
 SOIL           : CCBUGA2017     TEXTURE : CL    -   Suelo Buga MADR Fase I     
 SOIL INITIAL C : DEPTH: 90cm EXTR. H2O: 83.9mm  NO3:  0.0kg/ha  NH4:  0.0kg/ha 
 WATER BALANCE  : RAINFED                                                       
 IRRIGATION     : NOT IRRIGATED                                                 
 NITROGEN BAL.  : SOIL-N & N-UPTAKE SIMULATION; NO N-FIXATION                   
 N-FERTILIZER   :      161 kg/ha IN     5 APPLICATIONS                          
 RESIDUE/MANURE : INITIAL :     0 kg/ha ;       0 kg/ha IN     0 APPLICATIONS   
 ENVIRONM. OPT. : DAYL=    0.00  SRAD=    0.00  TMAX=    0.00  TMIN=    0.00    
                  RAIN=    0.00  CO2 =    0.00  DEW =    0.00  WIND=    0.00    
 SIMULATION OPT : WATER   :Y  NITROGEN:Y  N-FIX:N  PHOSPH :N  PESTS  :N         
                  PHOTO   :C  ET      :R  INFIL:S  HYDROL :R  SOM    :G         
                  CO2 372ppm  NSWIT   :1  EVAP :S  SOIL   :2  STEMP  :D         
 MANAGEMENT OPT : PLANTING:R  IRRIG   :N  FERT :D  RESIDUE:R  HARVEST:M         
                  WEATHER :M  TILLAGE :N                                        
                                                                                
*SUMMARY OF SOIL AND GENETIC INPUT PARAMETERS                                   
                                                                                
   SOIL LOWER UPPER   SAT  EXTR  INIT   ROOT   BULK     pH    NO3    NH4    ORG 
  DEPTH LIMIT LIMIT    SW    SW    SW   DIST   DENS                          C  
   cm   cm3/cm3    cm3/cm3    cm3/cm3         g/cm3         ugN/g  ugN/g     %  
------------------------------------------------------------------------------- 
  0-  5 0.215 0.331 0.341 0.116 0.331   1.00   1.68   6.70   0.00   0.00   0.75 
  5- 15 0.215 0.331 0.341 0.116 0.331   1.00   1.68   6.70   0.00   0.00   0.75 
 15- 25 0.215 0.331 0.341 0.116 0.331   1.00   1.68   6.70   0.00   0.00   0.75 
 25- 35 0.181 0.291 0.364 0.110 0.291   0.50   1.61   7.20   0.00   0.00   0.53 
 35- 45 0.181 0.291 0.364 0.110 0.291   0.50   1.61   7.20   0.00   0.00   0.53 
 45- 67 0.096 0.169 0.404 0.073 0.169   0.27   1.51   7.00   0.00   0.00   0.05 
 67- 90 0.096 0.169 0.404 0.073 0.169   0.27   1.51   7.00   0.00   0.00   0.05 
                                                                                
TOT- 90  13.3  21.7  34.0   8.4  21.7  <--cm   -  kg/ha-->    0.0    0.0  51964 
SOIL ALBEDO    : 0.09      EVAPORATION LIMIT : 6.00         MIN. FACTOR  : 1.00 
RUNOFF CURVE # :76.00      DRAINAGE RATE     : 0.60         FERT. FACTOR : 1.00 
                                                                                
 Maize      CULTIVAR :CI0002-DK234              ECOTYPE :IB0001                 
 P1     : 300.00  P2     : 0.4000  P5     :1075.00                              
 G2     : 890.00  G3     :  7.750  PHINT  : 40.000                              


*SIMULATED CROP AND SOIL STATUS AT MAIN DEVELOPMENT STAGES

 RUN NO.     5     P04/22                  

        CROP GROWTH     BIOMASS         LEAF   CROP N     STRESS      STRESS                                           
   DATE  AGE STAGE        kg/ha    LAI   NUM  kg/ha  %   H2O  Nitr Phos1 Phos2  RSTG                                   
 ------  --- ----------   -----  -----  ----  ---  ---  ----  ----  ----  ----  ----                                   
 23 MAR    0 Start Sim        0   0.00   0.0    0  0.0  0.00  0.00  0.00  0.00     7
 22 APR    0 Sowing           0   0.00   0.0    0  0.0  0.00  0.00  0.00  0.00     8
 23 APR    1 Germinate        0   0.00   0.0    0  0.0  0.00  0.00  0.00  0.00     9
 28 APR    6 Emergence       25   0.00   2.2    1  4.4  0.00  0.01  0.00  0.00     1
 16 MAY   24 End Juveni     347   0.62  10.2    9  2.7  0.01  0.03  0.00  0.00     2
 24 MAY   32 Floral Ini     939   1.38  13.5   34  3.6  0.00  0.09  0.00  0.00     3
  4 JUL   73 75% Silkin    7725   3.26  27.9  150  1.9  0.23  0.10  0.00  0.00     4
 14 JUL   83 Beg Gr Fil    7643   2.15  27.9  162  2.1  0.88  0.01  0.00  0.00     5
  2 SEP  133 End Gr Fil    8862   0.31  27.9  162  1.8  0.79  0.00  0.00  0.00     6
  6 SEP  137 Maturity      8862   0.31  27.9  162  1.8  0.70  0.00  0.00  0.00    10
  6 SEP  137 Harvest       8862   0.31  27.9  162  1.8  0.00  0.00  0.00  0.00    10


*MAIN GROWTH AND DEVELOPMENT VARIABLES

@     VARIABLE                                         SIMULATED     MEASURED
      --------                                         ---------     --------
      Anthesis day (dap)                                      73          -99
      Physiological maturity day (dap)                       137          -99
      Yield at harvest maturity (kg [dm]/ha)                1679          -99
      Number at maturity (no/m2)                             752          -99
      Unit wt at maturity (g [dm]/unit)                   0.2234          -99
      Number at maturity (no/unit)                         124.2          -99
      Tops weight at maturity (kg [dm]/ha)                  8862          -99
      By-product produced (stalk) at maturity (kg[dm]/ha    7267          -99
      Leaf area index, maximum                              4.21          -99
      Harvest index at maturity                            0.189          -99
      Grain N at maturity (kg/ha)                             31          -99
      Tops N at maturity (kg/ha)                             162          -99
      Stem N at maturity (kg/ha)                             130          -99
      Grain N at maturity (%)                                1.9          -99
      Tops weight at anthesis (kg [dm]/ha)                  7706          -99
      Tops N at anthesis (kg/ha)                             150          -99
      Leaf number per stem at maturity                     27.93          -99
      Emergence day (dap)                                      6          -99


*ENVIRONMENTAL AND STRESS FACTORS

 |-----Development Phase------|--------------------------------------Environment--------------------------------------|-----------------Stress-----------------|
                              |---------------Average--------------|-----Cumulative-----|--------Count of days--------|          (0=Min, 1=Max Stress)         |
                         Time  Temp  Temp  Temp Solar Photop                Evapo    Pot TMIN TMIN TMAX TMAX TMAX RAIN|----Water----|---Nitrogen--|-Phosphorus-|
                         Span   Max   Min  Mean   Rad  [day]    CO2   Rain  Trans     ET   <    <    >    >    >    >   Photo         Photo         Photo
                         days    邂    邂    邂 MJ/m2     hr    ppm     mm     mm     mm  0邂  2邂 30邂 32邂 34邂  0mm  synth Growth  synth Growth  synth Growth
----------------------------------------------------------------------------------------------------------------------------------------------------------------
 Emergence-End Juvenile    18  28.6  19.8  24.2  14.7  24.00  372.5    7.3   33.5   71.2    0    0    4    0    0    3  0.000  0.006  0.007  0.017  0.000  0.000
 End Juvenil-Floral Init    8  29.3  19.9  24.6  12.9  24.00  372.7   29.5   19.5   26.5    0    0    3    1    0    5  0.000  0.000  0.049  0.123  0.000  0.000
 Floral Init-End Lf Grow   41  30.1  18.8  24.5  16.7  24.00  372.8   88.4  136.9  163.0    0    0   25    6    0   13  0.143  0.211  0.038  0.095  0.000  0.000
 End Lf Grth-Beg Grn Fil   10  30.4  18.9  24.7  17.3  24.00  372.9    6.6   11.9   41.2    0    0    6    2    0    4  0.810  0.874  0.007  0.018  0.000  0.000
 Grain Filling Phase       50  31.2  18.3  24.8  18.4  23.79  373.2   54.0   56.7  236.0    0    0   37   18    4   12  0.770  0.813  0.000  0.000  0.000  0.000


 Planting to Harvest      137  30.3  18.9  24.6  16.8  23.77  372.9  243.0  284.8  582.9    0    0   82   29    4   43  0.396  0.438  0.016  0.039  0.000  0.000
----------------------------------------------------------------------------------------------------------------------------------------------------------------


*Resource Productivity
 Growing season length: 137 days 

 Precipitation during growing season       243.0 mm[rain]
   Dry Matter Productivity                  3.65 kg[DM]/m3[rain]          =   36.5 kg[DM]/ha per mm[rain]
   Yield Productivity                       0.69 kg[grain yield]/m3[rain] =    6.9 kg[yield]/ha per mm[rain]

 Evapotranspiration during growing season  284.8 mm[ET]
   Dry Matter Productivity                  3.11 kg[DM]/m3[ET]            =   31.1 kg[DM]/ha per mm[ET]
   Yield Productivity                       0.59 kg[grain yield]/m3[ET]   =    5.9 kg[yield]/ha per mm[ET]

 Transpiration during growing season       161.5 mm[EP]
   Dry Matter Productivity                  5.49 kg[DM]/m3[EP]            =   54.9 kg[DM]/ha per mm[EP]
   Yield Productivity                       1.04 kg[grain yield]/m3[EP]   =   10.4 kg[yield]/ha per mm[EP]

 N applied during growing season            161. kg[N applied]/ha
   Dry Matter Productivity                  55.0 kg[DM]/kg[N applied]
   Yield Productivity                       10.4 kg[yield]/kg[N applied]

 N uptake during growing season              179 kg[N uptake]/ha
   Dry Matter Productivity                  49.5 kg[DM]/kg[N uptake]
   Yield Productivity                        9.4 kg[yield]/kg[N uptake]

--------------------------------------------------------------------------------------------------------------

                     Maize YIELD :     1679 kg/ha    [Dry weight] 

**************************************************************************************************************

*DSSAT Cropping System Model Ver. 4.6.1.000 -release      OCT 24, 2017; 10:45:44
                                                                                
*RUN   6        : P04/27                    MZCER046 ANBU2002    6              
 MODEL          : MZCER046 - Maize                                              
 EXPERIMENT     : ANBU2002 MZ  Analisis a침os de bajo rendimiento Buga          
 DATA PATH      : C:\DSSAT46\maize\                                             
 TREATMENT  6   : P04/27                    MZCER046                            
                                                                                
                                                                                
 CROP           : Maize            CULTIVAR : DK234            ECOTYPE :IB0001  
 STARTING DATE  : MAR 28 2002                                                   
 PLANTING DATE  : APR 27 2002        PLANTS/m2 :  6.2     ROW SPACING :  80.cm  
 WEATHER        : CUNI   2002                                                   
 SOIL           : CCBUGA2017     TEXTURE : CL    -   Suelo Buga MADR Fase I     
 SOIL INITIAL C : DEPTH: 90cm EXTR. H2O: 83.9mm  NO3:  0.0kg/ha  NH4:  0.0kg/ha 
 WATER BALANCE  : RAINFED                                                       
 IRRIGATION     : NOT IRRIGATED                                                 
 NITROGEN BAL.  : SOIL-N & N-UPTAKE SIMULATION; NO N-FIXATION                   
 N-FERTILIZER   :      161 kg/ha IN     5 APPLICATIONS                          
 RESIDUE/MANURE : INITIAL :     0 kg/ha ;       0 kg/ha IN     0 APPLICATIONS   
 ENVIRONM. OPT. : DAYL=    0.00  SRAD=    0.00  TMAX=    0.00  TMIN=    0.00    
                  RAIN=    0.00  CO2 =    0.00  DEW =    0.00  WIND=    0.00    
 SIMULATION OPT : WATER   :Y  NITROGEN:Y  N-FIX:N  PHOSPH :N  PESTS  :N         
                  PHOTO   :C  ET      :R  INFIL:S  HYDROL :R  SOM    :G         
                  CO2 372ppm  NSWIT   :1  EVAP :S  SOIL   :2  STEMP  :D         
 MANAGEMENT OPT : PLANTING:R  IRRIG   :N  FERT :D  RESIDUE:R  HARVEST:M         
                  WEATHER :M  TILLAGE :N                                        
                                                                                
*SUMMARY OF SOIL AND GENETIC INPUT PARAMETERS                                   
                                                                                
   SOIL LOWER UPPER   SAT  EXTR  INIT   ROOT   BULK     pH    NO3    NH4    ORG 
  DEPTH LIMIT LIMIT    SW    SW    SW   DIST   DENS                          C  
   cm   cm3/cm3    cm3/cm3    cm3/cm3         g/cm3         ugN/g  ugN/g     %  
------------------------------------------------------------------------------- 
  0-  5 0.215 0.331 0.341 0.116 0.331   1.00   1.68   6.70   0.00   0.00   0.75 
  5- 15 0.215 0.331 0.341 0.116 0.331   1.00   1.68   6.70   0.00   0.00   0.75 
 15- 25 0.215 0.331 0.341 0.116 0.331   1.00   1.68   6.70   0.00   0.00   0.75 
 25- 35 0.181 0.291 0.364 0.110 0.291   0.50   1.61   7.20   0.00   0.00   0.53 
 35- 45 0.181 0.291 0.364 0.110 0.291   0.50   1.61   7.20   0.00   0.00   0.53 
 45- 67 0.096 0.169 0.404 0.073 0.169   0.27   1.51   7.00   0.00   0.00   0.05 
 67- 90 0.096 0.169 0.404 0.073 0.169   0.27   1.51   7.00   0.00   0.00   0.05 
                                                                                
TOT- 90  13.3  21.7  34.0   8.4  21.7  <--cm   -  kg/ha-->    0.0    0.0  51964 
SOIL ALBEDO    : 0.09      EVAPORATION LIMIT : 6.00         MIN. FACTOR  : 1.00 
RUNOFF CURVE # :76.00      DRAINAGE RATE     : 0.60         FERT. FACTOR : 1.00 
                                                                                
 Maize      CULTIVAR :CI0002-DK234              ECOTYPE :IB0001                 
 P1     : 300.00  P2     : 0.4000  P5     :1075.00                              
 G2     : 890.00  G3     :  7.750  PHINT  : 40.000                              


*SIMULATED CROP AND SOIL STATUS AT MAIN DEVELOPMENT STAGES

 RUN NO.     6     P04/27                  

        CROP GROWTH     BIOMASS         LEAF   CROP N     STRESS      STRESS                                           
   DATE  AGE STAGE        kg/ha    LAI   NUM  kg/ha  %   H2O  Nitr Phos1 Phos2  RSTG                                   
 ------  --- ----------   -----  -----  ----  ---  ---  ----  ----  ----  ----  ----                                   
 28 MAR    0 Start Sim        0   0.00   0.0    0  0.0  0.00  0.00  0.00  0.00     7
 27 APR    0 Sowing           0   0.00   0.0    0  0.0  0.00  0.00  0.00  0.00     8
 28 APR    1 Germinate        0   0.00   0.0    0  0.0  0.00  0.00  0.00  0.00     9
  3 MAY    6 Emergence       25   0.00   2.2    1  4.4  0.00  0.01  0.00  0.00     1
 21 MAY   24 End Juveni     355   0.63  10.2   12  3.5  0.01  0.00  0.00  0.00     2
 29 MAY   32 Floral Ini     929   1.37  13.5   33  3.6  0.00  0.00  0.00  0.00     3
  9 JUL   73 75% Silkin    7378   2.90  27.9  158  2.1  0.25  0.12  0.00  0.00     4
 18 JUL   82 Beg Gr Fil    7263   2.06  27.9  158  2.2  0.80  0.00  0.00  0.00     5
  7 SEP  133 End Gr Fil    8509   0.30  27.9  158  1.9  0.80  0.00  0.00  0.00     6
 11 SEP  137 Maturity      8509   0.30  27.9  158  1.9  0.93  0.00  0.00  0.00    10
 11 SEP  137 Harvest       8509   0.30  27.9  158  1.9  0.00  0.00  0.00  0.00    10


*MAIN GROWTH AND DEVELOPMENT VARIABLES

@     VARIABLE                                         SIMULATED     MEASURED
      --------                                         ---------     --------
      Anthesis day (dap)                                      73          -99
      Physiological maturity day (dap)                       137          -99
      Yield at harvest maturity (kg [dm]/ha)                1466          -99
      Number at maturity (no/m2)                             627          -99
      Unit wt at maturity (g [dm]/unit)                   0.2339          -99
      Number at maturity (no/unit)                         108.3          -99
      Tops weight at maturity (kg [dm]/ha)                  8509          -99
      By-product produced (stalk) at maturity (kg[dm]/ha    7124          -99
      Leaf area index, maximum                              4.09          -99
      Harvest index at maturity                            0.172          -99
      Grain N at maturity (kg/ha)                             27          -99
      Tops N at maturity (kg/ha)                             158          -99
      Stem N at maturity (kg/ha)                             129          -99
      Grain N at maturity (%)                                1.9          -99
      Tops weight at anthesis (kg [dm]/ha)                  7373          -99
      Tops N at anthesis (kg/ha)                             158          -99
      Leaf number per stem at maturity                     27.95          -99
      Emergence day (dap)                                      6          -99


*ENVIRONMENTAL AND STRESS FACTORS

 |-----Development Phase------|--------------------------------------Environment--------------------------------------|-----------------Stress-----------------|
                              |---------------Average--------------|-----Cumulative-----|--------Count of days--------|          (0=Min, 1=Max Stress)         |
                         Time  Temp  Temp  Temp Solar Photop                Evapo    Pot TMIN TMIN TMAX TMAX TMAX RAIN|----Water----|---Nitrogen--|-Phosphorus-|
                         Span   Max   Min  Mean   Rad  [day]    CO2   Rain  Trans     ET   <    <    >    >    >    >   Photo         Photo         Photo
                         days    邂    邂    邂 MJ/m2     hr    ppm     mm     mm     mm  0邂  2邂 30邂 32邂 34邂  0mm  synth Growth  synth Growth  synth Growth
----------------------------------------------------------------------------------------------------------------------------------------------------------------
 Emergence-End Juvenile    18  28.4  20.0  24.2  14.1  24.00  372.6   21.6   19.7   68.0    0    0    3    0    0    4  0.000  0.013  0.002  0.005  0.000  0.000
 End Juvenil-Floral Init    8  30.2  18.7  24.4  14.7  24.00  372.7   23.2   25.8   30.2    0    0    4    2    0    4  0.000  0.000  0.000  0.001  0.000  0.000
 Floral Init-End Lf Grow   41  30.0  18.9  24.5  17.0  24.00  372.8   77.2  130.8  165.0    0    0   24    5    0   13  0.186  0.234  0.046  0.116  0.000  0.000
 End Lf Grth-Beg Grn Fil    9  31.7  18.7  25.2  16.4  24.00  373.0   10.4   10.6   35.9    0    0    8    4    0    3  0.838  0.893  0.000  0.000  0.000  0.000
 Grain Filling Phase       51  31.2  18.4  24.8  18.7  23.24  373.2   47.2   60.7  246.5    0    0   37   18    4   13  0.742  0.785  0.000  0.000  0.000  0.000


 Planting to Harvest      137  30.3  18.8  24.6  17.0  23.50  373.0  194.1  271.8  587.7    0    0   83   29    4   41  0.414  0.450  0.014  0.035  0.000  0.000
----------------------------------------------------------------------------------------------------------------------------------------------------------------


*Resource Productivity
 Growing season length: 137 days 

 Precipitation during growing season       194.1 mm[rain]
   Dry Matter Productivity                  4.38 kg[DM]/m3[rain]          =   43.8 kg[DM]/ha per mm[rain]
   Yield Productivity                       0.76 kg[grain yield]/m3[rain] =    7.6 kg[yield]/ha per mm[rain]

 Evapotranspiration during growing season  271.8 mm[ET]
   Dry Matter Productivity                  3.13 kg[DM]/m3[ET]            =   31.3 kg[DM]/ha per mm[ET]
   Yield Productivity                       0.54 kg[grain yield]/m3[ET]   =    5.4 kg[yield]/ha per mm[ET]

 Transpiration during growing season       156.5 mm[EP]
   Dry Matter Productivity                  5.44 kg[DM]/m3[EP]            =   54.4 kg[DM]/ha per mm[EP]
   Yield Productivity                       0.94 kg[grain yield]/m3[EP]   =    9.4 kg[yield]/ha per mm[EP]

 N applied during growing season            161. kg[N applied]/ha
   Dry Matter Productivity                  52.8 kg[DM]/kg[N applied]
   Yield Productivity                        9.1 kg[yield]/kg[N applied]

 N uptake during growing season              176 kg[N uptake]/ha
   Dry Matter Productivity                  48.3 kg[DM]/kg[N uptake]
   Yield Productivity                        8.3 kg[yield]/kg[N uptake]

--------------------------------------------------------------------------------------------------------------

                     Maize YIELD :     1466 kg/ha    [Dry weight] 

**************************************************************************************************************

*DSSAT Cropping System Model Ver. 4.6.1.000 -release      OCT 24, 2017; 10:45:44
                                                                                
*RUN   7        : P05/02                    MZCER046 ANBU2002    7              
 MODEL          : MZCER046 - Maize                                              
 EXPERIMENT     : ANBU2002 MZ  Analisis a침os de bajo rendimiento Buga          
 DATA PATH      : C:\DSSAT46\maize\                                             
 TREATMENT  7   : P05/02                    MZCER046                            
                                                                                
                                                                                
 CROP           : Maize            CULTIVAR : DK234            ECOTYPE :IB0001  
 STARTING DATE  : APR  2 2002                                                   
 PLANTING DATE  : MAY  2 2002        PLANTS/m2 :  6.2     ROW SPACING :  80.cm  
 WEATHER        : CUNI   2002                                                   
 SOIL           : CCBUGA2017     TEXTURE : CL    -   Suelo Buga MADR Fase I     
 SOIL INITIAL C : DEPTH: 90cm EXTR. H2O: 83.9mm  NO3:  0.0kg/ha  NH4:  0.0kg/ha 
 WATER BALANCE  : RAINFED                                                       
 IRRIGATION     : NOT IRRIGATED                                                 
 NITROGEN BAL.  : SOIL-N & N-UPTAKE SIMULATION; NO N-FIXATION                   
 N-FERTILIZER   :      161 kg/ha IN     5 APPLICATIONS                          
 RESIDUE/MANURE : INITIAL :     0 kg/ha ;       0 kg/ha IN     0 APPLICATIONS   
 ENVIRONM. OPT. : DAYL=    0.00  SRAD=    0.00  TMAX=    0.00  TMIN=    0.00    
                  RAIN=    0.00  CO2 =    0.00  DEW =    0.00  WIND=    0.00    
 SIMULATION OPT : WATER   :Y  NITROGEN:Y  N-FIX:N  PHOSPH :N  PESTS  :N         
                  PHOTO   :C  ET      :R  INFIL:S  HYDROL :R  SOM    :G         
                  CO2 372ppm  NSWIT   :1  EVAP :S  SOIL   :2  STEMP  :D         
 MANAGEMENT OPT : PLANTING:R  IRRIG   :N  FERT :D  RESIDUE:R  HARVEST:M         
                  WEATHER :M  TILLAGE :N                                        
                                                                                
*SUMMARY OF SOIL AND GENETIC INPUT PARAMETERS                                   
                                                                                
   SOIL LOWER UPPER   SAT  EXTR  INIT   ROOT   BULK     pH    NO3    NH4    ORG 
  DEPTH LIMIT LIMIT    SW    SW    SW   DIST   DENS                          C  
   cm   cm3/cm3    cm3/cm3    cm3/cm3         g/cm3         ugN/g  ugN/g     %  
------------------------------------------------------------------------------- 
  0-  5 0.215 0.331 0.341 0.116 0.331   1.00   1.68   6.70   0.00   0.00   0.75 
  5- 15 0.215 0.331 0.341 0.116 0.331   1.00   1.68   6.70   0.00   0.00   0.75 
 15- 25 0.215 0.331 0.341 0.116 0.331   1.00   1.68   6.70   0.00   0.00   0.75 
 25- 35 0.181 0.291 0.364 0.110 0.291   0.50   1.61   7.20   0.00   0.00   0.53 
 35- 45 0.181 0.291 0.364 0.110 0.291   0.50   1.61   7.20   0.00   0.00   0.53 
 45- 67 0.096 0.169 0.404 0.073 0.169   0.27   1.51   7.00   0.00   0.00   0.05 
 67- 90 0.096 0.169 0.404 0.073 0.169   0.27   1.51   7.00   0.00   0.00   0.05 
                                                                                
TOT- 90  13.3  21.7  34.0   8.4  21.7  <--cm   -  kg/ha-->    0.0    0.0  51964 
SOIL ALBEDO    : 0.09      EVAPORATION LIMIT : 6.00         MIN. FACTOR  : 1.00 
RUNOFF CURVE # :76.00      DRAINAGE RATE     : 0.60         FERT. FACTOR : 1.00 
                                                                                
 Maize      CULTIVAR :CI0002-DK234              ECOTYPE :IB0001                 
 P1     : 300.00  P2     : 0.4000  P5     :1075.00                              
 G2     : 890.00  G3     :  7.750  PHINT  : 40.000                              


*SIMULATED CROP AND SOIL STATUS AT MAIN DEVELOPMENT STAGES

 RUN NO.     7     P05/02                  

        CROP GROWTH     BIOMASS         LEAF   CROP N     STRESS      STRESS                                           
   DATE  AGE STAGE        kg/ha    LAI   NUM  kg/ha  %   H2O  Nitr Phos1 Phos2  RSTG                                   
 ------  --- ----------   -----  -----  ----  ---  ---  ----  ----  ----  ----  ----                                   
  2 APR    0 Start Sim        0   0.00   0.0    0  0.0  0.00  0.00  0.00  0.00     7
  2 MAY    0 Sowing           0   0.00   0.0    0  0.0  0.00  0.00  0.00  0.00     8
  3 MAY    1 Germinate        0   0.00   0.0    0  0.0  0.00  0.00  0.00  0.00     9
  8 MAY    6 Emergence       25   0.00   2.1    1  4.4  0.00  0.01  0.00  0.00     1
 26 MAY   24 End Juveni     333   0.60  10.3   11  3.4  0.02  0.01  0.00  0.00     2
  3 JUN   32 Floral Ini     984   1.44  13.6   29  2.9  0.00  0.00  0.00  0.00     3
 13 JUL   72 75% Silkin    6204   2.42  28.0  145  2.3  0.37  0.08  0.00  0.00     4
 23 JUL   82 Beg Gr Fil    6193   1.63  28.0  145  2.3  0.82  0.00  0.00  0.00     5
 12 SEP  133 End Gr Fil    7412   0.23  28.0  145  2.0  0.80  0.00  0.00  0.00     6
 16 SEP  137 Maturity      7412   0.23  28.0  145  2.0  0.93  0.00  0.00  0.00    10
 16 SEP  137 Harvest       7412   0.23  28.0  145  2.0  0.00  0.00  0.00  0.00    10


*MAIN GROWTH AND DEVELOPMENT VARIABLES

@     VARIABLE                                         SIMULATED     MEASURED
      --------                                         ---------     --------
      Anthesis day (dap)                                      72          -99
      Physiological maturity day (dap)                       137          -99
      Yield at harvest maturity (kg [dm]/ha)                1687          -99
      Number at maturity (no/m2)                             733          -99
      Unit wt at maturity (g [dm]/unit)                   0.2302          -99
      Number at maturity (no/unit)                         121.8          -99
      Tops weight at maturity (kg [dm]/ha)                  7412          -99
      By-product produced (stalk) at maturity (kg[dm]/ha    5800          -99
      Leaf area index, maximum                              3.70          -99
      Harvest index at maturity                            0.228          -99
      Grain N at maturity (kg/ha)                             31          -99
      Tops N at maturity (kg/ha)                             145          -99
      Stem N at maturity (kg/ha)                             113          -99
      Grain N at maturity (%)                                1.9          -99
      Tops weight at anthesis (kg [dm]/ha)                  6199          -99
      Tops N at anthesis (kg/ha)                             145          -99
      Leaf number per stem at maturity                     28.02          -99
      Emergence day (dap)                                      6          -99


*ENVIRONMENTAL AND STRESS FACTORS

 |-----Development Phase------|--------------------------------------Environment--------------------------------------|-----------------Stress-----------------|
                              |---------------Average--------------|-----Cumulative-----|--------Count of days--------|          (0=Min, 1=Max Stress)         |
                         Time  Temp  Temp  Temp Solar Photop                Evapo    Pot TMIN TMIN TMAX TMAX TMAX RAIN|----Water----|---Nitrogen--|-Phosphorus-|
                         Span   Max   Min  Mean   Rad  [day]    CO2   Rain  Trans     ET   <    <    >    >    >    >   Photo         Photo         Photo
                         days    邂    邂    邂 MJ/m2     hr    ppm     mm     mm     mm  0邂  2邂 30邂 32邂 34邂  0mm  synth Growth  synth Growth  synth Growth
----------------------------------------------------------------------------------------------------------------------------------------------------------------
 Emergence-End Juvenile    18  29.1  19.8  24.5  13.7  24.00  372.6   40.8   26.1   66.8    0    0    5    2    0    7  0.000  0.020  0.004  0.010  0.000  0.000
 End Juvenil-Floral Init    8  29.6  18.5  24.0  16.5  24.00  372.7    5.3   25.5   33.8    0    0    4    0    0    2  0.000  0.000  0.000  0.001  0.000  0.000
 Floral Init-End Lf Grow   40  30.2  19.0  24.6  16.8  24.00  372.9   78.7  120.0  160.3    0    0   24    6    0   14  0.259  0.346  0.031  0.077  0.000  0.000
 End Lf Grth-Beg Grn Fil   10  31.9  19.0  25.4  16.5  24.00  373.1    8.6   14.8   40.7    0    0   10    4    0    3  0.776  0.818  0.000  0.000  0.000  0.000
 Grain Filling Phase       51  31.1  18.2  24.7  18.8  22.48  373.3   48.7   56.3  249.4    0    0   37   17    4   13  0.759  0.803  0.000  0.000  0.000  0.000


 Planting to Harvest      137  30.4  18.8  24.6  17.0  23.16  373.0  189.1  251.5  592.6    0    0   84   29    4   40  0.441  0.489  0.010  0.024  0.000  0.000
----------------------------------------------------------------------------------------------------------------------------------------------------------------


*Resource Productivity
 Growing season length: 137 days 

 Precipitation during growing season       189.1 mm[rain]
   Dry Matter Productivity                  3.92 kg[DM]/m3[rain]          =   39.2 kg[DM]/ha per mm[rain]
   Yield Productivity                       0.89 kg[grain yield]/m3[rain] =    8.9 kg[yield]/ha per mm[rain]

 Evapotranspiration during growing season  251.5 mm[ET]
   Dry Matter Productivity                  2.95 kg[DM]/m3[ET]            =   29.5 kg[DM]/ha per mm[ET]
   Yield Productivity                       0.67 kg[grain yield]/m3[ET]   =    6.7 kg[yield]/ha per mm[ET]

 Transpiration during growing season       141.8 mm[EP]
   Dry Matter Productivity                  5.23 kg[DM]/m3[EP]            =   52.3 kg[DM]/ha per mm[EP]
   Yield Productivity                       1.19 kg[grain yield]/m3[EP]   =   11.9 kg[yield]/ha per mm[EP]

 N applied during growing season            161. kg[N applied]/ha
   Dry Matter Productivity                  46.0 kg[DM]/kg[N applied]
   Yield Productivity                       10.5 kg[yield]/kg[N applied]

 N uptake during growing season              164 kg[N uptake]/ha
   Dry Matter Productivity                  45.2 kg[DM]/kg[N uptake]
   Yield Productivity                       10.3 kg[yield]/kg[N uptake]

--------------------------------------------------------------------------------------------------------------

                     Maize YIELD :     1687 kg/ha    [Dry weight] 

**************************************************************************************************************

*DSSAT Cropping System Model Ver. 4.6.1.000 -release      OCT 24, 2017; 10:45:45
                                                                                
*RUN   8        : P05/07                    MZCER046 ANBU2002    8              
 MODEL          : MZCER046 - Maize                                              
 EXPERIMENT     : ANBU2002 MZ  Analisis a침os de bajo rendimiento Buga          
 DATA PATH      : C:\DSSAT46\maize\                                             
 TREATMENT  8   : P05/07                    MZCER046                            
                                                                                
                                                                                
 CROP           : Maize            CULTIVAR : DK234            ECOTYPE :IB0001  
 STARTING DATE  : APR  7 2002                                                   
 PLANTING DATE  : MAY  7 2002        PLANTS/m2 :  6.2     ROW SPACING :  80.cm  
 WEATHER        : CUNI   2002                                                   
 SOIL           : CCBUGA2017     TEXTURE : CL    -   Suelo Buga MADR Fase I     
 SOIL INITIAL C : DEPTH: 90cm EXTR. H2O: 83.9mm  NO3:  0.0kg/ha  NH4:  0.0kg/ha 
 WATER BALANCE  : RAINFED                                                       
 IRRIGATION     : NOT IRRIGATED                                                 
 NITROGEN BAL.  : SOIL-N & N-UPTAKE SIMULATION; NO N-FIXATION                   
 N-FERTILIZER   :      161 kg/ha IN     5 APPLICATIONS                          
 RESIDUE/MANURE : INITIAL :     0 kg/ha ;       0 kg/ha IN     0 APPLICATIONS   
 ENVIRONM. OPT. : DAYL=    0.00  SRAD=    0.00  TMAX=    0.00  TMIN=    0.00    
                  RAIN=    0.00  CO2 =    0.00  DEW =    0.00  WIND=    0.00    
 SIMULATION OPT : WATER   :Y  NITROGEN:Y  N-FIX:N  PHOSPH :N  PESTS  :N         
                  PHOTO   :C  ET      :R  INFIL:S  HYDROL :R  SOM    :G         
                  CO2 372ppm  NSWIT   :1  EVAP :S  SOIL   :2  STEMP  :D         
 MANAGEMENT OPT : PLANTING:R  IRRIG   :N  FERT :D  RESIDUE:R  HARVEST:M         
                  WEATHER :M  TILLAGE :N                                        
                                                                                
*SUMMARY OF SOIL AND GENETIC INPUT PARAMETERS                                   
                                                                                
   SOIL LOWER UPPER   SAT  EXTR  INIT   ROOT   BULK     pH    NO3    NH4    ORG 
  DEPTH LIMIT LIMIT    SW    SW    SW   DIST   DENS                          C  
   cm   cm3/cm3    cm3/cm3    cm3/cm3         g/cm3         ugN/g  ugN/g     %  
------------------------------------------------------------------------------- 
  0-  5 0.215 0.331 0.341 0.116 0.331   1.00   1.68   6.70   0.00   0.00   0.75 
  5- 15 0.215 0.331 0.341 0.116 0.331   1.00   1.68   6.70   0.00   0.00   0.75 
 15- 25 0.215 0.331 0.341 0.116 0.331   1.00   1.68   6.70   0.00   0.00   0.75 
 25- 35 0.181 0.291 0.364 0.110 0.291   0.50   1.61   7.20   0.00   0.00   0.53 
 35- 45 0.181 0.291 0.364 0.110 0.291   0.50   1.61   7.20   0.00   0.00   0.53 
 45- 67 0.096 0.169 0.404 0.073 0.169   0.27   1.51   7.00   0.00   0.00   0.05 
 67- 90 0.096 0.169 0.404 0.073 0.169   0.27   1.51   7.00   0.00   0.00   0.05 
                                                                                
TOT- 90  13.3  21.7  34.0   8.4  21.7  <--cm   -  kg/ha-->    0.0    0.0  51964 
SOIL ALBEDO    : 0.09      EVAPORATION LIMIT : 6.00         MIN. FACTOR  : 1.00 
RUNOFF CURVE # :76.00      DRAINAGE RATE     : 0.60         FERT. FACTOR : 1.00 
                                                                                
 Maize      CULTIVAR :CI0002-DK234              ECOTYPE :IB0001                 
 P1     : 300.00  P2     : 0.4000  P5     :1075.00                              
 G2     : 890.00  G3     :  7.750  PHINT  : 40.000                              


*SIMULATED CROP AND SOIL STATUS AT MAIN DEVELOPMENT STAGES

 RUN NO.     8     P05/07                  

        CROP GROWTH     BIOMASS         LEAF   CROP N     STRESS      STRESS                                           
   DATE  AGE STAGE        kg/ha    LAI   NUM  kg/ha  %   H2O  Nitr Phos1 Phos2  RSTG                                   
 ------  --- ----------   -----  -----  ----  ---  ---  ----  ----  ----  ----  ----                                   
  7 APR    0 Start Sim        0   0.00   0.0    0  0.0  0.00  0.00  0.00  0.00     7
  7 MAY    0 Sowing           0   0.00   0.0    0  0.0  0.00  0.00  0.00  0.00     8
  8 MAY    1 Germinate        0   0.00   0.0    0  0.0  0.00  0.00  0.00  0.00     9
 13 MAY    6 Emergence       25   0.00   2.1    1  4.4  0.00  0.01  0.00  0.00     1
 31 MAY   24 End Juveni     233   0.45  10.3    8  3.5  0.02  0.01  0.00  0.00     2
  8 JUN   32 Floral Ini     770   1.18  13.7   28  3.6  0.00  0.01  0.00  0.00     3
 19 JUL   73 75% Silkin    4809   1.67  28.1  115  2.4  0.47  0.05  0.00  0.00     4
 29 JUL   83 Beg Gr Fil    4571   1.05  28.1  115  2.5  0.94  0.00  0.00  0.00     5
 18 SEP  134 End Gr Fil    5531   0.17  28.1  115  2.1  0.73  0.00  0.00  0.00     6
 21 SEP  137 Maturity      5531   0.17  28.1  115  2.1  0.00  0.00  0.00  0.00    10
[...]
 NITROGEN BAL.  : SOIL-N & N-UPTAKE SIMULATION; NO N-FIXATION                   
 N-FERTILIZER   :      161 kg/ha IN     5 APPLICATIONS                          
 RESIDUE/MANURE : INITIAL :     0 kg/ha ;       0 kg/ha IN     0 APPLICATIONS   
 ENVIRONM. OPT. : DAYL=    0.00  SRAD=    0.00  TMAX=    0.00  TMIN=    0.00    
                  RAIN=    0.00  CO2 =    0.00  DEW =    0.00  WIND=    0.00    
 SIMULATION OPT : WATER   :Y  NITROGEN:Y  N-FIX:N  PHOSPH :N  PESTS  :N         
                  PHOTO   :C  ET      :R  INFIL:S  HYDROL :R  SOM    :G         
                  CO2 374ppm  NSWIT   :1  EVAP :S  SOIL   :2  STEMP  :D         
 MANAGEMENT OPT : PLANTING:R  IRRIG   :N  FERT :D  RESIDUE:R  HARVEST:M         
                  WEATHER :M  TILLAGE :N                                        
                                                                                
*SUMMARY OF SOIL AND GENETIC INPUT PARAMETERS                                   
                                                                                
   SOIL LOWER UPPER   SAT  EXTR  INIT   ROOT   BULK     pH    NO3    NH4    ORG 
  DEPTH LIMIT LIMIT    SW    SW    SW   DIST   DENS                          C  
   cm   cm3/cm3    cm3/cm3    cm3/cm3         g/cm3         ugN/g  ugN/g     %  
------------------------------------------------------------------------------- 
  0-  5 0.215 0.331 0.341 0.116 0.331   1.00   1.68   6.70   0.00   0.00   0.75 
  5- 15 0.215 0.331 0.341 0.116 0.331   1.00   1.68   6.70   0.00   0.00   0.75 
 15- 25 0.215 0.331 0.341 0.116 0.331   1.00   1.68   6.70   0.00   0.00   0.75 
 25- 35 0.181 0.291 0.364 0.110 0.291   0.50   1.61   7.20   0.00   0.00   0.53 
 35- 45 0.181 0.291 0.364 0.110 0.291   0.50   1.61   7.20   0.00   0.00   0.53 
 45- 67 0.096 0.169 0.404 0.073 0.169   0.27   1.51   7.00   0.00   0.00   0.05 
 67- 90 0.096 0.169 0.404 0.073 0.169   0.27   1.51   7.00   0.00   0.00   0.05 
                                                                                
TOT- 90  13.3  21.7  34.0   8.4  21.7  <--cm   -  kg/ha-->    0.0    0.0  51964 
SOIL ALBEDO    : 0.09      EVAPORATION LIMIT : 6.00         MIN. FACTOR  : 1.00 
RUNOFF CURVE # :76.00      DRAINAGE RATE     : 0.60         FERT. FACTOR : 1.00 
                                                                                
 Maize      CULTIVAR :CI0002-DK234              ECOTYPE :IB0001                 
 P1     : 300.00  P2     : 0.4000  P5     :1075.00                              
 G2     : 890.00  G3     :  7.750  PHINT  : 40.000                              


*SIMULATED CROP AND SOIL STATUS AT MAIN DEVELOPMENT STAGES

 RUN NO.    35     P12/14                  

        CROP GROWTH     BIOMASS         LEAF   CROP N     STRESS      STRESS                                           
   DATE  AGE STAGE        kg/ha    LAI   NUM  kg/ha  %   H2O  Nitr Phos1 Phos2  RSTG                                   
 ------  --- ----------   -----  -----  ----  ---  ---  ----  ----  ----  ----  ----                                   
 14 NOV    0 Start Sim        0   0.00   0.0    0  0.0  0.00  0.00  0.00  0.00     7
 14 DEC    0 Sowing           0   0.00   0.0    0  0.0  0.00  0.00  0.00  0.00     8
 15 DEC    1 Germinate        0   0.00   0.0    0  0.0  0.00  0.00  0.00  0.00     9
 20 DEC    6 Emergence       25   0.00   2.1    1  4.4  0.00  0.01  0.00  0.00     1
  6 JAN   23 End Juveni     315   0.57  10.1    9  2.7  0.00  0.02  0.00  0.00     2
 10 JAN   27 Floral Ini     507   0.79  11.8   10  2.0  0.00  0.39  0.00  0.00     3
 14 FEB   62 75% Silkin    2289   0.88  24.6   51  2.2  0.55  0.30  0.00  0.00     4
 24 FEB   72 Beg Gr Fil    2395   0.65  24.6   52  2.2  0.70  0.00  0.00  0.00     5
 13 APR  120 End Gr Fil    4255   0.30  24.6   55  1.3  0.32  0.00  0.00  0.00     6
 17 APR  124 Maturity      4255   0.30  24.6   55  1.3  0.00  0.00  0.00  0.00    10
 17 APR  124 Harvest       4255   0.30  24.6   55  1.3  0.00  0.00  0.00  0.00    10


*MAIN GROWTH AND DEVELOPMENT VARIABLES

@     VARIABLE                                         SIMULATED     MEASURED
      --------                                         ---------     --------
      Anthesis day (dap)                                      62          -99
      Physiological maturity day (dap)                       124          -99
      Yield at harvest maturity (kg [dm]/ha)                1747          -99
      Number at maturity (no/m2)                             574          -99
      Unit wt at maturity (g [dm]/unit)                   0.3044          -99
      Number at maturity (no/unit)                         101.4          -99
      Tops weight at maturity (kg [dm]/ha)                  4255          -99
      By-product produced (stalk) at maturity (kg[dm]/ha    2545          -99
      Leaf area index, maximum                              1.22          -99
      Harvest index at maturity                            0.411          -99
      Grain N at maturity (kg/ha)                             31          -99
      Tops N at maturity (kg/ha)                              55          -99
      Stem N at maturity (kg/ha)                              22          -99
      Grain N at maturity (%)                                1.8          -99
      Tops weight at anthesis (kg [dm]/ha)                  2281          -99
      Tops N at anthesis (kg/ha)                              38          -99
      Leaf number per stem at maturity                     24.63          -99
      Emergence day (dap)                                      6          -99


*ENVIRONMENTAL AND STRESS FACTORS

 |-----Development Phase------|--------------------------------------Environment--------------------------------------|-----------------Stress-----------------|
                              |---------------Average--------------|-----Cumulative-----|--------Count of days--------|          (0=Min, 1=Max Stress)         |
                         Time  Temp  Temp  Temp Solar Photop                Evapo    Pot TMIN TMIN TMAX TMAX TMAX RAIN|----Water----|---Nitrogen--|-Phosphorus-|
                         Span   Max   Min  Mean   Rad  [day]    CO2   Rain  Trans     ET   <    <    >    >    >    >   Photo         Photo         Photo
                         days    邂    邂    邂 MJ/m2     hr    ppm     mm     mm     mm  0邂  2邂 30邂 32邂 34邂  0mm  synth Growth  synth Growth  synth Growth
----------------------------------------------------------------------------------------------------------------------------------------------------------------
 Emergence-End Juvenile    17  30.4  19.1  24.7  15.1   0.00  374.3    0.0   20.4   70.1    0    0    9    4    0    0  0.000  0.000  0.004  0.010  0.000  0.000
 End Juvenil-Floral Init    4  31.0  17.7  24.4  16.7   0.00  374.3    0.0    7.3   17.3    0    0    3    1    0    0  0.000  0.000  0.128  0.321  0.000  0.000
 Floral Init-End Lf Grow   35  31.5  18.9  25.2  15.0   0.00  374.5   18.1   58.4  133.8    0    0   28   16    2    4  0.412  0.531  0.155  0.309  0.000  0.000
 End Lf Grth-Beg Grn Fil   10  32.4  19.7  26.0  10.3   0.00  374.7   10.2   14.2   27.3    0    0   10    5    1    3  0.582  0.689  0.011  0.028  0.000  0.000
 Grain Filling Phase       48  31.9  19.1  25.5  17.2  10.69  374.8  119.6   84.5  224.4    0    0   39   25    4   16  0.327  0.343  0.000  0.000  0.000  0.000


 Planting to Harvest      124  31.5  19.1  25.3  15.3   4.89  374.6  219.0  214.4  507.0    0    0   95   51    7   30  0.290  0.338  0.049  0.101  0.000  0.000
----------------------------------------------------------------------------------------------------------------------------------------------------------------


*Resource Productivity
 Growing season length: 124 days 

 Precipitation during growing season       219.0 mm[rain]
   Dry Matter Productivity                  1.94 kg[DM]/m3[rain]          =   19.4 kg[DM]/ha per mm[rain]
   Yield Productivity                       0.80 kg[grain yield]/m3[rain] =    8.0 kg[yield]/ha per mm[rain]

 Evapotranspiration during growing season  214.4 mm[ET]
   Dry Matter Productivity                  1.98 kg[DM]/m3[ET]            =   19.8 kg[DM]/ha per mm[ET]
   Yield Productivity                       0.81 kg[grain yield]/m3[ET]   =    8.1 kg[yield]/ha per mm[ET]

 Transpiration during growing season        89.8 mm[EP]
   Dry Matter Productivity                  4.74 kg[DM]/m3[EP]            =   47.4 kg[DM]/ha per mm[EP]
   Yield Productivity                       1.95 kg[grain yield]/m3[EP]   =   19.5 kg[yield]/ha per mm[EP]

 N applied during growing season            161. kg[N applied]/ha
   Dry Matter Productivity                  26.4 kg[DM]/kg[N applied]
   Yield Productivity                       10.9 kg[yield]/kg[N applied]

 N uptake during growing season               60 kg[N uptake]/ha
   Dry Matter Productivity                  70.9 kg[DM]/kg[N uptake]
   Yield Productivity                       29.1 kg[yield]/kg[N uptake]

--------------------------------------------------------------------------------------------------------------

                     Maize YIELD :     1747 kg/ha    [Dry weight] 

**************************************************************************************************************

*DSSAT Cropping System Model Ver. 4.6.1.000 -release      OCT 24, 2017; 10:45:48
                                                                                
*RUN  36        : P12/19                    MZCER046 ANBU2002   36              
 MODEL          : MZCER046 - Maize                                              
 EXPERIMENT     : ANBU2002 MZ  Analisis a침os de bajo rendimiento Buga          
 DATA PATH      : C:\DSSAT46\maize\                                             
 TREATMENT 36   : P12/19                    MZCER046                            
                                                                                
                                                                                
 CROP           : Maize            CULTIVAR : DK234            ECOTYPE :IB0001  
 STARTING DATE  : NOV 19 2002                                                   
 PLANTING DATE  : DEC 19 2002        PLANTS/m2 :  6.2     ROW SPACING :  80.cm  
 WEATHER        : CUNI   2002                                                   
 SOIL           : CCBUGA2017     TEXTURE : CL    -   Suelo Buga MADR Fase I     
 SOIL INITIAL C : DEPTH: 90cm EXTR. H2O: 83.9mm  NO3:  0.0kg/ha  NH4:  0.0kg/ha 
 WATER BALANCE  : RAINFED                                                       
 IRRIGATION     : NOT IRRIGATED                                                 
 NITROGEN BAL.  : SOIL-N & N-UPTAKE SIMULATION; NO N-FIXATION                   
 N-FERTILIZER   :      161 kg/ha IN     5 APPLICATIONS                          
 RESIDUE/MANURE : INITIAL :     0 kg/ha ;       0 kg/ha IN     0 APPLICATIONS   
 ENVIRONM. OPT. : DAYL=    0.00  SRAD=    0.00  TMAX=    0.00  TMIN=    0.00    
                  RAIN=    0.00  CO2 =    0.00  DEW =    0.00  WIND=    0.00    
 SIMULATION OPT : WATER   :Y  NITROGEN:Y  N-FIX:N  PHOSPH :N  PESTS  :N         
                  PHOTO   :C  ET      :R  INFIL:S  HYDROL :R  SOM    :G         
                  CO2 374ppm  NSWIT   :1  EVAP :S  SOIL   :2  STEMP  :D         
 MANAGEMENT OPT : PLANTING:R  IRRIG   :N  FERT :D  RESIDUE:R  HARVEST:M         
                  WEATHER :M  TILLAGE :N                                        
                                                                                
*SUMMARY OF SOIL AND GENETIC INPUT PARAMETERS                                   
                                                                                
   SOIL LOWER UPPER   SAT  EXTR  INIT   ROOT   BULK     pH    NO3    NH4    ORG 
  DEPTH LIMIT LIMIT    SW    SW    SW   DIST   DENS                          C  
   cm   cm3/cm3    cm3/cm3    cm3/cm3         g/cm3         ugN/g  ugN/g     %  
------------------------------------------------------------------------------- 
  0-  5 0.215 0.331 0.341 0.116 0.331   1.00   1.68   6.70   0.00   0.00   0.75 
  5- 15 0.215 0.331 0.341 0.116 0.331   1.00   1.68   6.70   0.00   0.00   0.75 
 15- 25 0.215 0.331 0.341 0.116 0.331   1.00   1.68   6.70   0.00   0.00   0.75 
 25- 35 0.181 0.291 0.364 0.110 0.291   0.50   1.61   7.20   0.00   0.00   0.53 
 35- 45 0.181 0.291 0.364 0.110 0.291   0.50   1.61   7.20   0.00   0.00   0.53 
 45- 67 0.096 0.169 0.404 0.073 0.169   0.27   1.51   7.00   0.00   0.00   0.05 
 67- 90 0.096 0.169 0.404 0.073 0.169   0.27   1.51   7.00   0.00   0.00   0.05 
                                                                                
TOT- 90  13.3  21.7  34.0   8.4  21.7  <--cm   -  kg/ha-->    0.0    0.0  51964 
SOIL ALBEDO    : 0.09      EVAPORATION LIMIT : 6.00         MIN. FACTOR  : 1.00 
RUNOFF CURVE # :76.00      DRAINAGE RATE     : 0.60         FERT. FACTOR : 1.00 
                                                                                
 Maize      CULTIVAR :CI0002-DK234              ECOTYPE :IB0001                 
 P1     : 300.00  P2     : 0.4000  P5     :1075.00                              
 G2     : 890.00  G3     :  7.750  PHINT  : 40.000                              


*SIMULATED CROP AND SOIL STATUS AT MAIN DEVELOPMENT STAGES

 RUN NO.    36     P12/19                  

        CROP GROWTH     BIOMASS         LEAF   CROP N     STRESS      STRESS                                           
   DATE  AGE STAGE        kg/ha    LAI   NUM  kg/ha  %   H2O  Nitr Phos1 Phos2  RSTG                                   
 ------  --- ----------   -----  -----  ----  ---  ---  ----  ----  ----  ----  ----                                   
 19 NOV    0 Start Sim        0   0.00   0.0    0  0.0  0.00  0.00  0.00  0.00     7
 19 DEC    0 Sowing           0   0.00   0.0    0  0.0  0.00  0.00  0.00  0.00     8
 20 DEC    1 Germinate        0   0.00   0.0    0  0.0  0.00  0.00  0.00  0.00     9
 25 DEC    6 Emergence       25   0.00   2.1    1  4.4  0.00  0.01  0.00  0.00     1
 11 JAN   23 End Juveni     343   0.61  10.3    9  2.5  0.00  0.03  0.00  0.00     2
 15 JAN   27 Floral Ini     539   0.82  12.0   10  1.9  0.00  0.45  0.00  0.00     3
 19 FEB   62 75% Silkin    2818   1.19  24.9   64  2.3  0.55  0.34  0.00  0.00     4
  1 MAR   72 Beg Gr Fil    2724   0.77  24.9   64  2.3  0.90  0.00  0.00  0.00     5
 19 APR  121 End Gr Fil    4301   0.44  24.9   64  1.5  0.23  0.00  0.00  0.00     6
 23 APR  125 Maturity      4301   0.44  24.9   64  1.5  0.00  0.00  0.00  0.00    10
 23 APR  125 Harvest       4301   0.44  24.9   64  1.5  0.00  0.00  0.00  0.00    10


*MAIN GROWTH AND DEVELOPMENT VARIABLES

@     VARIABLE                                         SIMULATED     MEASURED
      --------                                         ---------     --------
      Anthesis day (dap)                                      62          -99
      Physiological maturity day (dap)                       125          -99
      Yield at harvest maturity (kg [dm]/ha)                1334          -99
      Number at maturity (no/m2)                             406          -99
      Unit wt at maturity (g [dm]/unit)                   0.3284          -99
      Number at maturity (no/unit)                          78.2          -99
      Tops weight at maturity (kg [dm]/ha)                  4301          -99
      By-product produced (stalk) at maturity (kg[dm]/ha    3011          -99
      Leaf area index, maximum                              1.61          -99
      Harvest index at maturity                            0.310          -99
      Grain N at maturity (kg/ha)                             23          -99
      Tops N at maturity (kg/ha)                              64          -99
      Stem N at maturity (kg/ha)                              36          -99
      Grain N at maturity (%)                                1.7          -99
      Tops weight at anthesis (kg [dm]/ha)                  2813          -99
      Tops N at anthesis (kg/ha)                              64          -99
      Leaf number per stem at maturity                     24.90          -99
      Emergence day (dap)                                      6          -99


*ENVIRONMENTAL AND STRESS FACTORS

 |-----Development Phase------|--------------------------------------Environment--------------------------------------|-----------------Stress-----------------|
                              |---------------Average--------------|-----Cumulative-----|--------Count of days--------|          (0=Min, 1=Max Stress)         |
                         Time  Temp  Temp  Temp Solar Photop                Evapo    Pot TMIN TMIN TMAX TMAX TMAX RAIN|----Water----|---Nitrogen--|-Phosphorus-|
                         Span   Max   Min  Mean   Rad  [day]    CO2   Rain  Trans     ET   <    <    >    >    >    >   Photo         Photo         Photo
                         days    邂    邂    邂 MJ/m2     hr    ppm     mm     mm     mm  0邂  2邂 30邂 32邂 34邂  0mm  synth Growth  synth Growth  synth Growth
----------------------------------------------------------------------------------------------------------------------------------------------------------------
 Emergence-End Juvenile    17  31.1  18.7  24.9  16.3   0.00  374.3    0.0   16.4   75.2    0    0   12    5    0    0  0.000  0.002  0.007  0.016  0.000  0.000
 End Juvenil-Floral Init    4  32.2  19.5  25.8  16.0   0.00  374.3    0.0    7.1   16.8    0    0    4    2    0    0  0.000  0.000  0.155  0.387  0.000  0.000
 Floral Init-End Lf Grow   35  31.5  18.9  25.2  14.2   0.00  374.5   28.3   67.0  124.8    0    0   28   15    2    7  0.386  0.522  0.164  0.356  0.000  0.000
 End Lf Grth-Beg Grn Fil   10  33.0  19.6  26.3  13.8   0.18  374.7    6.0    9.8   36.1    0    0   10    9    1    1  0.833  0.890  0.000  0.000  0.000  0.000
 Grain Filling Phase       49  31.6  19.0  25.3  16.9  13.31  374.9  193.4  106.7  223.0    0    0   37   21    4   20  0.243  0.251  0.000  0.000  0.000  0.000


 Planting to Harvest      125  31.4  19.0  25.2  15.5   6.00  374.7  262.7  232.5  512.7    0    0   92   52    7   32  0.270  0.316  0.052  0.114  0.000  0.000
----------------------------------------------------------------------------------------------------------------------------------------------------------------


*Resource Productivity
 Growing season length: 125 days 

 Precipitation during growing season       262.7 mm[rain]
   Dry Matter Productivity                  1.64 kg[DM]/m3[rain]          =   16.4 kg[DM]/ha per mm[rain]
   Yield Productivity                       0.51 kg[grain yield]/m3[rain] =    5.1 kg[yield]/ha per mm[rain]

 Evapotranspiration during growing season  232.5 mm[ET]
   Dry Matter Productivity                  1.85 kg[DM]/m3[ET]            =   18.5 kg[DM]/ha per mm[ET]
   Yield Productivity                       0.57 kg[grain yield]/m3[ET]   =    5.7 kg[yield]/ha per mm[ET]

 Transpiration during growing season       108.5 mm[EP]
   Dry Matter Productivity                  3.96 kg[DM]/m3[EP]            =   39.6 kg[DM]/ha per mm[EP]
   Yield Productivity                       1.23 kg[grain yield]/m3[EP]   =   12.3 kg[yield]/ha per mm[EP]

 N applied during growing season            161. kg[N applied]/ha
   Dry Matter Productivity                  26.7 kg[DM]/kg[N applied]
   Yield Productivity                        8.3 kg[yield]/kg[N applied]

 N uptake during growing season               70 kg[N uptake]/ha
   Dry Matter Productivity                  61.4 kg[DM]/kg[N uptake]
   Yield Productivity                       19.1 kg[yield]/kg[N uptake]

--------------------------------------------------------------------------------------------------------------

                     Maize YIELD :     1334 kg/ha    [Dry weight] 

**************************************************************************************************************
