*SIMULATION OVERVIEW FILE

*DSSAT Cropping System Model Ver. 4.6.1.000 -release      OCT 02, 2017; 13:30:01
                                                                                
*RUN   1        : P04/02                    MZCER046 ANBU1997    1              
 MODEL          : MZCER046 - Maize                                              
 EXPERIMENT     : ANBU1997 MZ  Analisis a침os de bajo rendimiento Buga          
 DATA PATH      : C:\DSSAT46\maize\                                             
 TREATMENT  1   : P04/02                    MZCER046                            
                                                                                
                                                                                
 CROP           : Maize            CULTIVAR : FNC3056          ECOTYPE :IB0001  
 STARTING DATE  : MAR  3 1997                                                   
 PLANTING DATE  : APR  2 1997        PLANTS/m2 :  6.2     ROW SPACING :  80.cm  
 WEATHER        : CUNI   1997                                                   
 SOIL           : CCBUGA2017     TEXTURE : CL    -   Suelo Buga MADR Fase I     
 SOIL INITIAL C : DEPTH: 90cm EXTR. H2O: 83.9mm  NO3:151.4kg/ha  NH4: 62.4kg/ha 
 WATER BALANCE  : RAINFED                                                       
 IRRIGATION     : NOT IRRIGATED                                                 
 NITROGEN BAL.  : SOIL-N & N-UPTAKE SIMULATION; NO N-FIXATION                   
 N-FERTILIZER   :      161 kg/ha IN     5 APPLICATIONS                          
 RESIDUE/MANURE : INITIAL :     0 kg/ha ;       0 kg/ha IN     0 APPLICATIONS   
 ENVIRONM. OPT. : DAYL=    0.00  SRAD=    0.00  TMAX=    0.00  TMIN=    0.00    
                  RAIN=    0.00  CO2 =    0.00  DEW =    0.00  WIND=    0.00    
 SIMULATION OPT : WATER   :Y  NITROGEN:Y  N-FIX:N  PHOSPH :N  PESTS  :N         
                  PHOTO   :C  ET      :R  INFIL:S  HYDROL :R  SOM    :G         
                  CO2 363ppm  NSWIT   :1  EVAP :S  SOIL   :2  STEMP  :D         
 MANAGEMENT OPT : PLANTING:R  IRRIG   :N  FERT :D  RESIDUE:R  HARVEST:M         
                  WEATHER :M  TILLAGE :N                                        
                                                                                
*SUMMARY OF SOIL AND GENETIC INPUT PARAMETERS                                   
                                                                                
   SOIL LOWER UPPER   SAT  EXTR  INIT   ROOT   BULK     pH    NO3    NH4    ORG 
  DEPTH LIMIT LIMIT    SW    SW    SW   DIST   DENS                          C  
   cm   cm3/cm3    cm3/cm3    cm3/cm3         g/cm3         ugN/g  ugN/g     %  
------------------------------------------------------------------------------- 
  0-  5 0.215 0.331 0.341 0.116 0.319   1.00   1.68   6.70  11.90   4.21   0.75 
  5- 15 0.215 0.331 0.341 0.116 0.319   1.00   1.68   6.70  11.90   4.21   0.75 
 15- 25 0.215 0.331 0.341 0.116 0.319   1.00   1.68   6.70  11.90   4.21   0.75 
 25- 35 0.181 0.291 0.364 0.110 0.331   0.50   1.61   7.20  12.15   4.32   0.53 
 35- 45 0.181 0.291 0.364 0.110 0.344   0.50   1.61   7.20  12.40   4.44   0.53 
 45- 67 0.096 0.169 0.404 0.073 0.290   0.27   1.51   7.00  10.67   4.47   0.05 
 67- 90 0.096 0.169 0.404 0.073 0.195   0.27   1.51   7.00   7.63   4.53   0.05 
                                                                                
TOT- 90  13.3  21.7  34.0   8.4  25.6  <--cm   -  kg/ha-->  151.4   62.4  51964 
SOIL ALBEDO    : 0.09      EVAPORATION LIMIT : 6.00         MIN. FACTOR  : 1.00 
RUNOFF CURVE # :76.00      DRAINAGE RATE     : 0.60         FERT. FACTOR : 1.00 
                                                                                
 Maize      CULTIVAR :CI0003-FNC3056            ECOTYPE :IB0001                 
 P1     : 233.00  P2     : 0.5000  P5     : 976.00                              
 G2     : 956.00  G3     :  7.500  PHINT  : 45.600                              


*SIMULATED CROP AND SOIL STATUS AT MAIN DEVELOPMENT STAGES

 RUN NO.     1     P04/02                  

        CROP GROWTH     BIOMASS         LEAF   CROP N     STRESS      STRESS                                           
   DATE  AGE STAGE        kg/ha    LAI   NUM  kg/ha  %   H2O  Nitr Phos1 Phos2  RSTG                                   
 ------  --- ----------   -----  -----  ----  ---  ---  ----  ----  ----  ----  ----                                   
  3 MAR    0 Start Sim        0   0.00   0.0    0  0.0  0.00  0.00  0.00  0.00     7
  2 APR    0 Sowing           0   0.00   0.0    0  0.0  0.00  0.00  0.00  0.00     8
  3 APR    1 Germinate        0   0.00   0.0    0  0.0  0.00  0.00  0.00  0.00     9
  8 APR    6 Emergence       25   0.00   2.1    1  4.4  0.00  0.01  0.00  0.00     1
 20 APR   18 End Juveni     101   0.22   7.4    4  3.7  0.00  0.00  0.00  0.00     2
 27 APR   25 Floral Ini     240   0.45   9.9    9  3.6  0.00  0.00  0.00  0.00     3
  2 JUN   61 75% Silkin    6171   3.45  21.0  125  2.0  0.00  0.00  0.00  0.00     4
 13 JUN   72 Beg Gr Fil    8214   3.26  21.0  125  1.5  0.00  0.00  0.00  0.00     5
 28 JUL  117 End Gr Fil   13826   1.26  21.0  174  1.3  0.43  0.00  0.00  0.00     6
 31 JUL  120 Maturity     13826   1.26  21.0  174  1.3  0.00  0.00  0.00  0.00    10
 31 JUL  120 Harvest      13826   1.26  21.0  174  1.3  0.00  0.00  0.00  0.00    10


*MAIN GROWTH AND DEVELOPMENT VARIABLES

@     VARIABLE                                         SIMULATED     MEASURED
      --------                                         ---------     --------
      Anthesis day (dap)                                      61          -99
      Physiological maturity day (dap)                       120          -99
      Yield at harvest maturity (kg [dm]/ha)                6904          -99
      Number at maturity (no/m2)                            2561          -99
      Unit wt at maturity (g [dm]/unit)                   0.2696          -99
      Number at maturity (no/unit)                         413.0          -99
      Tops weight at maturity (kg [dm]/ha)                 13826          -99
      By-product produced (stalk) at maturity (kg[dm]/ha    6978          -99
      Leaf area index, maximum                              3.63          -99
      Harvest index at maturity                            0.499          -99
      Grain N at maturity (kg/ha)                            122          -99
      Tops N at maturity (kg/ha)                             174          -99
      Stem N at maturity (kg/ha)                              53          -99
      Grain N at maturity (%)                                1.8          -99
      Tops weight at anthesis (kg [dm]/ha)                  5968          -99
      Tops N at anthesis (kg/ha)                             125          -99
      Leaf number per stem at maturity                     21.02          -99
      Emergence day (dap)                                      6          -99


*ENVIRONMENTAL AND STRESS FACTORS

 |-----Development Phase------|--------------------------------------Environment--------------------------------------|-----------------Stress-----------------|
                              |---------------Average--------------|-----Cumulative-----|--------Count of days--------|          (0=Min, 1=Max Stress)         |
                         Time  Temp  Temp  Temp Solar Photop                Evapo    Pot TMIN TMIN TMAX TMAX TMAX RAIN|----Water----|---Nitrogen--|-Phosphorus-|
                         Span   Max   Min  Mean   Rad  [day]    CO2   Rain  Trans     ET   <    <    >    >    >    >   Photo         Photo         Photo
                         days    邂    邂    邂 MJ/m2     hr    ppm     mm     mm     mm  0邂  2邂 30邂 32邂 34邂  0mm  synth Growth  synth Growth  synth Growth
----------------------------------------------------------------------------------------------------------------------------------------------------------------
 Emergence-End Juvenile    12  31.5  19.8  25.7  15.4  21.85  363.4   50.0   27.6   52.2    0    0   10    5    0    5  0.000  0.000  0.002  0.004  0.000  0.000
 End Juvenil-Floral Init    7  27.9  19.1  23.5  13.4  24.00  363.4   62.0   24.9   24.9    0    0    1    0    0    5  0.000  0.000  0.000  0.000  0.000  0.000
 Floral Init-End Lf Grow   36  30.5  18.9  24.7  15.3  24.00  363.5   84.0  123.3  136.2    0    0   22    7    0   10  0.000  0.000  0.000  0.000  0.000  0.000
 End Lf Grth-Beg Grn Fil   11  27.9  18.6  23.3  13.4  24.00  363.5  119.0   34.0   34.1    0    0    1    0    0    7  0.000  0.000  0.000  0.000  0.000  0.000
 Grain Filling Phase       45  31.7  18.2  25.0  17.1  24.00  363.7   36.0  118.5  187.4    0    0   36   13    7    7  0.364  0.411  0.000  0.000  0.000  0.000


 Planting to Harvest      120  30.8  18.7  24.7  15.8  23.42  363.5  410.0  345.2  477.6    0    0   77   30    7   38  0.144  0.162  0.000  0.000  0.000  0.000
----------------------------------------------------------------------------------------------------------------------------------------------------------------


*Resource Productivity
 Growing season length: 120 days 

 Precipitation during growing season       410.0 mm[rain]
   Dry Matter Productivity                  3.37 kg[DM]/m3[rain]          =   33.7 kg[DM]/ha per mm[rain]
   Yield Productivity                       1.68 kg[grain yield]/m3[rain] =   16.8 kg[yield]/ha per mm[rain]

 Evapotranspiration during growing season  345.2 mm[ET]
   Dry Matter Productivity                  4.00 kg[DM]/m3[ET]            =   40.0 kg[DM]/ha per mm[ET]
   Yield Productivity                       2.00 kg[grain yield]/m3[ET]   =   20.0 kg[yield]/ha per mm[ET]

 Transpiration during growing season       234.2 mm[EP]
   Dry Matter Productivity                  5.90 kg[DM]/m3[EP]            =   59.0 kg[DM]/ha per mm[EP]
   Yield Productivity                       2.95 kg[grain yield]/m3[EP]   =   29.5 kg[yield]/ha per mm[EP]

 N applied during growing season            161. kg[N applied]/ha
   Dry Matter Productivity                  85.9 kg[DM]/kg[N applied]
   Yield Productivity                       42.9 kg[yield]/kg[N applied]

 N uptake during growing season              191 kg[N uptake]/ha
   Dry Matter Productivity                  72.4 kg[DM]/kg[N uptake]
   Yield Productivity                       36.1 kg[yield]/kg[N uptake]

--------------------------------------------------------------------------------------------------------------

                     Maize YIELD :     6904 kg/ha    [Dry weight] 

**************************************************************************************************************

*DSSAT Cropping System Model Ver. 4.6.1.000 -release      OCT 02, 2017; 13:30:01
                                                                                
*RUN   2        : P04/07                    MZCER046 ANBU1997    2              
 MODEL          : MZCER046 - Maize                                              
 EXPERIMENT     : ANBU1997 MZ  Analisis a침os de bajo rendimiento Buga          
 DATA PATH      : C:\DSSAT46\maize\                                             
 TREATMENT  2   : P04/07                    MZCER046                            
                                                                                
                                                                                
 CROP           : Maize            CULTIVAR : FNC3056          ECOTYPE :IB0001  
 STARTING DATE  : MAR  8 1997                                                   
 PLANTING DATE  : APR  7 1997        PLANTS/m2 :  6.2     ROW SPACING :  80.cm  
 WEATHER        : CUNI   1997                                                   
 SOIL           : CCBUGA2017     TEXTURE : CL    -   Suelo Buga MADR Fase I     
 SOIL INITIAL C : DEPTH: 90cm EXTR. H2O: 83.9mm  NO3:151.4kg/ha  NH4: 62.4kg/ha 
 WATER BALANCE  : RAINFED                                                       
 IRRIGATION     : NOT IRRIGATED                                                 
 NITROGEN BAL.  : SOIL-N & N-UPTAKE SIMULATION; NO N-FIXATION                   
 N-FERTILIZER   :      161 kg/ha IN     5 APPLICATIONS                          
 RESIDUE/MANURE : INITIAL :     0 kg/ha ;       0 kg/ha IN     0 APPLICATIONS   
 ENVIRONM. OPT. : DAYL=    0.00  SRAD=    0.00  TMAX=    0.00  TMIN=    0.00    
                  RAIN=    0.00  CO2 =    0.00  DEW =    0.00  WIND=    0.00    
 SIMULATION OPT : WATER   :Y  NITROGEN:Y  N-FIX:N  PHOSPH :N  PESTS  :N         
                  PHOTO   :C  ET      :R  INFIL:S  HYDROL :R  SOM    :G         
                  CO2 363ppm  NSWIT   :1  EVAP :S  SOIL   :2  STEMP  :D         
 MANAGEMENT OPT : PLANTING:R  IRRIG   :N  FERT :D  RESIDUE:R  HARVEST:M         
                  WEATHER :M  TILLAGE :N                                        
                                                                                
*SUMMARY OF SOIL AND GENETIC INPUT PARAMETERS                                   
                                                                                
   SOIL LOWER UPPER   SAT  EXTR  INIT   ROOT   BULK     pH    NO3    NH4    ORG 
  DEPTH LIMIT LIMIT    SW    SW    SW   DIST   DENS                          C  
   cm   cm3/cm3    cm3/cm3    cm3/cm3         g/cm3         ugN/g  ugN/g     %  
------------------------------------------------------------------------------- 
  0-  5 0.215 0.331 0.341 0.116 0.319   1.00   1.68   6.70  11.90   4.21   0.75 
  5- 15 0.215 0.331 0.341 0.116 0.319   1.00   1.68   6.70  11.90   4.21   0.75 
 15- 25 0.215 0.331 0.341 0.116 0.319   1.00   1.68   6.70  11.90   4.21   0.75 
 25- 35 0.181 0.291 0.364 0.110 0.331   0.50   1.61   7.20  12.15   4.32   0.53 
 35- 45 0.181 0.291 0.364 0.110 0.344   0.50   1.61   7.20  12.40   4.44   0.53 
 45- 67 0.096 0.169 0.404 0.073 0.290   0.27   1.51   7.00  10.67   4.47   0.05 
 67- 90 0.096 0.169 0.404 0.073 0.195   0.27   1.51   7.00   7.63   4.53   0.05 
                                                                                
TOT- 90  13.3  21.7  34.0   8.4  25.6  <--cm   -  kg/ha-->  151.4   62.4  51964 
SOIL ALBEDO    : 0.09      EVAPORATION LIMIT : 6.00         MIN. FACTOR  : 1.00 
RUNOFF CURVE # :76.00      DRAINAGE RATE     : 0.60         FERT. FACTOR : 1.00 
                                                                                
 Maize      CULTIVAR :CI0003-FNC3056            ECOTYPE :IB0001                 
 P1     : 233.00  P2     : 0.5000  P5     : 976.00                              
 G2     : 956.00  G3     :  7.500  PHINT  : 45.600                              


*SIMULATED CROP AND SOIL STATUS AT MAIN DEVELOPMENT STAGES

 RUN NO.     2     P04/07                  

        CROP GROWTH     BIOMASS         LEAF   CROP N     STRESS      STRESS                                           
   DATE  AGE STAGE        kg/ha    LAI   NUM  kg/ha  %   H2O  Nitr Phos1 Phos2  RSTG                                   
 ------  --- ----------   -----  -----  ----  ---  ---  ----  ----  ----  ----  ----                                   
  8 MAR    0 Start Sim        0   0.00   0.0    0  0.0  0.00  0.00  0.00  0.00     7
  7 APR    0 Sowing           0   0.00   0.0    0  0.0  0.00  0.00  0.00  0.00     8
  8 APR    1 Germinate        0   0.00   0.0    0  0.0  0.00  0.00  0.00  0.00     9
 13 APR    6 Emergence       25   0.00   2.1    1  4.4  0.00  0.01  0.00  0.00     1
 26 APR   19 End Juveni      74   0.16   7.6    3  3.5  0.00  0.00  0.00  0.00     2
  4 MAY   27 Floral Ini     383   0.67  10.7   14  3.6  0.00  0.00  0.00  0.00     3
 12 JUN   66 75% Silkin    6505   3.72  22.3  134  2.1  0.00  0.00  0.00  0.00     4
 23 JUN   77 Beg Gr Fil    8944   3.52  22.3  136  1.5  0.00  0.00  0.00  0.00     5
  6 AUG  121 End Gr Fil   14823   1.38  22.3  186  1.3  0.47  0.00  0.00  0.00     6
  8 AUG  123 Maturity     14823   1.38  22.3  186  1.3  0.75  0.00  0.00  0.00    10
  8 AUG  123 Harvest      14823   1.38  22.3  186  1.3  0.00  0.00  0.00  0.00    10


*MAIN GROWTH AND DEVELOPMENT VARIABLES

@     VARIABLE                                         SIMULATED     MEASURED
      --------                                         ---------     --------
      Anthesis day (dap)                                      66          -99
      Physiological maturity day (dap)                       123          -99
      Yield at harvest maturity (kg [dm]/ha)                7562          -99
      Number at maturity (no/m2)                            2945          -99
      Unit wt at maturity (g [dm]/unit)                   0.2568          -99
      Number at maturity (no/unit)                         475.0          -99
      Tops weight at maturity (kg [dm]/ha)                 14823          -99
      By-product produced (stalk) at maturity (kg[dm]/ha    7325          -99
      Leaf area index, maximum                              3.90          -99
      Harvest index at maturity                            0.510          -99
      Grain N at maturity (kg/ha)                            134          -99
      Tops N at maturity (kg/ha)                             186          -99
      Stem N at maturity (kg/ha)                              52          -99
      Grain N at maturity (%)                                1.8          -99
      Tops weight at anthesis (kg [dm]/ha)                  6285          -99
      Tops N at anthesis (kg/ha)                             132          -99
      Leaf number per stem at maturity                     22.27          -99
      Emergence day (dap)                                      6          -99


*ENVIRONMENTAL AND STRESS FACTORS

 |-----Development Phase------|--------------------------------------Environment--------------------------------------|-----------------Stress-----------------|
                              |---------------Average--------------|-----Cumulative-----|--------Count of days--------|          (0=Min, 1=Max Stress)         |
                         Time  Temp  Temp  Temp Solar Photop                Evapo    Pot TMIN TMIN TMAX TMAX TMAX RAIN|----Water----|---Nitrogen--|-Phosphorus-|
                         Span   Max   Min  Mean   Rad  [day]    CO2   Rain  Trans     ET   <    <    >    >    >    >   Photo         Photo         Photo
                         days    邂    邂    邂 MJ/m2     hr    ppm     mm     mm     mm  0邂  2邂 30邂 32邂 34邂  0mm  synth Growth  synth Growth  synth Growth
----------------------------------------------------------------------------------------------------------------------------------------------------------------
 Emergence-End Juvenile    13  29.8  19.6  24.7  14.5  23.76  363.4   79.0   41.6   52.5    0    0    8    3    0    7  0.000  0.000  0.002  0.004  0.000  0.000
 End Juvenil-Floral Init    8  31.3  18.6  24.9  18.0  24.00  363.4   26.0   25.2   39.1    0    0    5    3    0    1  0.000  0.000  0.000  0.001  0.000  0.000
 Floral Init-End Lf Grow   39  29.6  18.9  24.3  14.2  24.00  363.5  201.0  126.9  134.7    0    0   18    4    0   16  0.000  0.000  0.000  0.000  0.000  0.000
 End Lf Grth-Beg Grn Fil   11  30.2  18.7  24.4  15.4  24.00  363.6   10.0   39.7   39.8    0    0    6    0    0    2  0.000  0.000  0.000  0.000  0.000  0.000
 Grain Filling Phase       44  32.2  18.0  25.1  17.8  24.00  363.7   78.0  116.6  193.1    0    0   39   19    8    9  0.401  0.455  0.000  0.000  0.000  0.000


 Planting to Harvest      123  30.9  18.7  24.8  16.0  23.74  363.6  401.0  361.2  494.8    0    0   81   33    9   37  0.153  0.174  0.000  0.001  0.000  0.000
----------------------------------------------------------------------------------------------------------------------------------------------------------------


*Resource Productivity
 Growing season length: 123 days 

 Precipitation during growing season       401.0 mm[rain]
   Dry Matter Productivity                  3.70 kg[DM]/m3[rain]          =   37.0 kg[DM]/ha per mm[rain]
   Yield Productivity                       1.89 kg[grain yield]/m3[rain] =   18.9 kg[yield]/ha per mm[rain]

 Evapotranspiration during growing season  361.2 mm[ET]
   Dry Matter Productivity                  4.10 kg[DM]/m3[ET]            =   41.0 kg[DM]/ha per mm[ET]
   Yield Productivity                       2.09 kg[grain yield]/m3[ET]   =   20.9 kg[yield]/ha per mm[ET]

 Transpiration during growing season       237.5 mm[EP]
   Dry Matter Productivity                  6.24 kg[DM]/m3[EP]            =   62.4 kg[DM]/ha per mm[EP]
   Yield Productivity                       3.18 kg[grain yield]/m3[EP]   =   31.8 kg[yield]/ha per mm[EP]

 N applied during growing season            161. kg[N applied]/ha
   Dry Matter Productivity                  92.1 kg[DM]/kg[N applied]
   Yield Productivity                       47.0 kg[yield]/kg[N applied]

 N uptake during growing season              203 kg[N uptake]/ha
   Dry Matter Productivity                  73.0 kg[DM]/kg[N uptake]
   Yield Productivity                       37.3 kg[yield]/kg[N uptake]

--------------------------------------------------------------------------------------------------------------

                     Maize YIELD :     7562 kg/ha    [Dry weight] 

**************************************************************************************************************

*DSSAT Cropping System Model Ver. 4.6.1.000 -release      OCT 02, 2017; 13:30:01
                                                                                
*RUN   3        : P04/12                    MZCER046 ANBU1997    3              
 MODEL          : MZCER046 - Maize                                              
 EXPERIMENT     : ANBU1997 MZ  Analisis a침os de bajo rendimiento Buga          
 DATA PATH      : C:\DSSAT46\maize\                                             
 TREATMENT  3   : P04/12                    MZCER046                            
                                                                                
                                                                                
 CROP           : Maize            CULTIVAR : FNC3056          ECOTYPE :IB0001  
 STARTING DATE  : MAR 13 1997                                                   
 PLANTING DATE  : APR 12 1997        PLANTS/m2 :  6.2     ROW SPACING :  80.cm  
 WEATHER        : CUNI   1997                                                   
 SOIL           : CCBUGA2017     TEXTURE : CL    -   Suelo Buga MADR Fase I     
 SOIL INITIAL C : DEPTH: 90cm EXTR. H2O: 83.9mm  NO3:151.4kg/ha  NH4: 62.4kg/ha 
 WATER BALANCE  : RAINFED                                                       
 IRRIGATION     : NOT IRRIGATED                                                 
 NITROGEN BAL.  : SOIL-N & N-UPTAKE SIMULATION; NO N-FIXATION                   
 N-FERTILIZER   :      161 kg/ha IN     5 APPLICATIONS                          
 RESIDUE/MANURE : INITIAL :     0 kg/ha ;       0 kg/ha IN     0 APPLICATIONS   
 ENVIRONM. OPT. : DAYL=    0.00  SRAD=    0.00  TMAX=    0.00  TMIN=    0.00    
                  RAIN=    0.00  CO2 =    0.00  DEW =    0.00  WIND=    0.00    
 SIMULATION OPT : WATER   :Y  NITROGEN:Y  N-FIX:N  PHOSPH :N  PESTS  :N         
                  PHOTO   :C  ET      :R  INFIL:S  HYDROL :R  SOM    :G         
                  CO2 363ppm  NSWIT   :1  EVAP :S  SOIL   :2  STEMP  :D         
 MANAGEMENT OPT : PLANTING:R  IRRIG   :N  FERT :D  RESIDUE:R  HARVEST:M         
                  WEATHER :M  TILLAGE :N                                        
                                                                                
*SUMMARY OF SOIL AND GENETIC INPUT PARAMETERS                                   
                                                                                
   SOIL LOWER UPPER   SAT  EXTR  INIT   ROOT   BULK     pH    NO3    NH4    ORG 
  DEPTH LIMIT LIMIT    SW    SW    SW   DIST   DENS                          C  
   cm   cm3/cm3    cm3/cm3    cm3/cm3         g/cm3         ugN/g  ugN/g     %  
------------------------------------------------------------------------------- 
  0-  5 0.215 0.331 0.341 0.116 0.319   1.00   1.68   6.70  11.90   4.21   0.75 
  5- 15 0.215 0.331 0.341 0.116 0.319   1.00   1.68   6.70  11.90   4.21   0.75 
 15- 25 0.215 0.331 0.341 0.116 0.319   1.00   1.68   6.70  11.90   4.21   0.75 
 25- 35 0.181 0.291 0.364 0.110 0.331   0.50   1.61   7.20  12.15   4.32   0.53 
 35- 45 0.181 0.291 0.364 0.110 0.344   0.50   1.61   7.20  12.40   4.44   0.53 
 45- 67 0.096 0.169 0.404 0.073 0.290   0.27   1.51   7.00  10.67   4.47   0.05 
 67- 90 0.096 0.169 0.404 0.073 0.195   0.27   1.51   7.00   7.63   4.53   0.05 
                                                                                
TOT- 90  13.3  21.7  34.0   8.4  25.6  <--cm   -  kg/ha-->  151.4   62.4  51964 
SOIL ALBEDO    : 0.09      EVAPORATION LIMIT : 6.00         MIN. FACTOR  : 1.00 
RUNOFF CURVE # :76.00      DRAINAGE RATE     : 0.60         FERT. FACTOR : 1.00 
                                                                                
 Maize      CULTIVAR :CI0003-FNC3056            ECOTYPE :IB0001                 
 P1     : 233.00  P2     : 0.5000  P5     : 976.00                              
 G2     : 956.00  G3     :  7.500  PHINT  : 45.600                              


*SIMULATED CROP AND SOIL STATUS AT MAIN DEVELOPMENT STAGES

 RUN NO.     3     P04/12                  

        CROP GROWTH     BIOMASS         LEAF   CROP N     STRESS      STRESS                                           
   DATE  AGE STAGE        kg/ha    LAI   NUM  kg/ha  %   H2O  Nitr Phos1 Phos2  RSTG                                   
 ------  --- ----------   -----  -----  ----  ---  ---  ----  ----  ----  ----  ----                                   
 13 MAR    0 Start Sim        0   0.00   0.0    0  0.0  0.00  0.00  0.00  0.00     7
 12 APR    0 Sowing           0   0.00   0.0    0  0.0  0.00  0.00  0.00  0.00     8
 13 APR    1 Germinate        0   0.00   0.0    0  0.0  0.00  0.00  0.00  0.00     9
 18 APR    6 Emergence       25   0.00   2.1    1  4.4  0.00  0.01  0.00  0.00     1
  1 MAY   19 End Juveni      92   0.20   7.5    3  3.2  0.00  0.00  0.00  0.00     2
  9 MAY   27 Floral Ini     414   0.71  10.7   15  3.6  0.00  0.00  0.00  0.00     3
 18 JUN   67 75% Silkin    6525   3.77  22.3  129  2.0  0.00  0.00  0.00  0.00     4
 28 JUN   77 Beg Gr Fil    8678   3.57  22.3  131  1.5  0.00  0.00  0.00  0.00     5
 11 AUG  121 End Gr Fil   13791   1.22  22.3  165  1.2  0.56  0.00  0.00  0.00     6
 14 AUG  124 Maturity     13791   1.22  22.3  165  1.2  0.88  0.00  0.00  0.00    10
 14 AUG  124 Harvest      13791   1.22  22.3  165  1.2  0.00  0.00  0.00  0.00    10


*MAIN GROWTH AND DEVELOPMENT VARIABLES

@     VARIABLE                                         SIMULATED     MEASURED
      --------                                         ---------     --------
      Anthesis day (dap)                                      67          -99
      Physiological maturity day (dap)                       124          -99
      Yield at harvest maturity (kg [dm]/ha)                6484          -99
      Number at maturity (no/m2)                            2848          -99
      Unit wt at maturity (g [dm]/unit)                   0.2277          -99
      Number at maturity (no/unit)                         459.4          -99
      Tops weight at maturity (kg [dm]/ha)                 13791          -99
      By-product produced (stalk) at maturity (kg[dm]/ha    7371          -99
      Leaf area index, maximum                              3.96          -99
      Harvest index at maturity                            0.470          -99
      Grain N at maturity (kg/ha)                            116          -99
      Tops N at maturity (kg/ha)                             165          -99
      Stem N at maturity (kg/ha)                              49          -99
      Grain N at maturity (%)                                1.8          -99
      Tops weight at anthesis (kg [dm]/ha)                  6356          -99
      Tops N at anthesis (kg/ha)                             127          -99
      Leaf number per stem at maturity                     22.34          -99
      Emergence day (dap)                                      6          -99


*ENVIRONMENTAL AND STRESS FACTORS

 |-----Development Phase------|--------------------------------------Environment--------------------------------------|-----------------Stress-----------------|
                              |---------------Average--------------|-----Cumulative-----|--------Count of days--------|          (0=Min, 1=Max Stress)         |
                         Time  Temp  Temp  Temp Solar Photop                Evapo    Pot TMIN TMIN TMAX TMAX TMAX RAIN|----Water----|---Nitrogen--|-Phosphorus-|
                         Span   Max   Min  Mean   Rad  [day]    CO2   Rain  Trans     ET   <    <    >    >    >    >   Photo         Photo         Photo
                         days    邂    邂    邂 MJ/m2     hr    ppm     mm     mm     mm  0邂  2邂 30邂 32邂 34邂  0mm  synth Growth  synth Growth  synth Growth
----------------------------------------------------------------------------------------------------------------------------------------------------------------
 Emergence-End Juvenile    13  29.7  19.3  24.5  14.8  24.00  363.4   71.0   41.8   53.5    0    0    5    3    0    7  0.000  0.000  0.002  0.004  0.000  0.000
 End Juvenil-Floral Init    8  31.5  18.2  24.8  17.3  24.00  363.4   14.0   15.7   37.3    0    0    7    3    0    2  0.000  0.000  0.000  0.001  0.000  0.000
 Floral Init-End Lf Grow   40  29.4  19.0  24.2  13.9  24.00  363.5  197.0  132.3  134.9    0    0   17    2    0   16  0.000  0.000  0.000  0.000  0.000  0.000
 End Lf Grth-Beg Grn Fil   10  30.4  18.3  24.3  14.7  24.00  363.7    8.0   34.6   34.7    0    0    5    1    0    3  0.000  0.000  0.000  0.000  0.000  0.000
 Grain Filling Phase       44  32.6  18.0  25.3  18.4  24.00  363.7   70.0  109.7  200.2    0    0   42   22   10    6  0.473  0.540  0.000  0.000  0.000  0.000


 Planting to Harvest      124  31.0  18.6  24.8  16.2  23.95  363.6  396.0  356.7  504.6    0    0   85   36   10   36  0.188  0.213  0.000  0.000  0.000  0.000
----------------------------------------------------------------------------------------------------------------------------------------------------------------


*Resource Productivity
 Growing season length: 124 days 

 Precipitation during growing season       396.0 mm[rain]
   Dry Matter Productivity                  3.48 kg[DM]/m3[rain]          =   34.8 kg[DM]/ha per mm[rain]
   Yield Productivity                       1.64 kg[grain yield]/m3[rain] =   16.4 kg[yield]/ha per mm[rain]

 Evapotranspiration during growing season  356.7 mm[ET]
   Dry Matter Productivity                  3.87 kg[DM]/m3[ET]            =   38.7 kg[DM]/ha per mm[ET]
   Yield Productivity                       1.82 kg[grain yield]/m3[ET]   =   18.2 kg[yield]/ha per mm[ET]

 Transpiration during growing season       224.9 mm[EP]
   Dry Matter Productivity                  6.13 kg[DM]/m3[EP]            =   61.3 kg[DM]/ha per mm[EP]
   Yield Productivity                       2.88 kg[grain yield]/m3[EP]   =   28.8 kg[yield]/ha per mm[EP]

 N applied during growing season            161. kg[N applied]/ha
   Dry Matter Productivity                  85.7 kg[DM]/kg[N applied]
   Yield Productivity                       40.3 kg[yield]/kg[N applied]

 N uptake during growing season              182 kg[N uptake]/ha
   Dry Matter Productivity                  75.8 kg[DM]/kg[N uptake]
   Yield Productivity                       35.6 kg[yield]/kg[N uptake]

--------------------------------------------------------------------------------------------------------------

                     Maize YIELD :     6484 kg/ha    [Dry weight] 

**************************************************************************************************************

*DSSAT Cropping System Model Ver. 4.6.1.000 -release      OCT 02, 2017; 13:30:01
                                                                                
*RUN   4        : P04/17                    MZCER046 ANBU1997    4              
 MODEL          : MZCER046 - Maize                                              
 EXPERIMENT     : ANBU1997 MZ  Analisis a침os de bajo rendimiento Buga          
 DATA PATH      : C:\DSSAT46\maize\                                             
 TREATMENT  4   : P04/17                    MZCER046                            
                                                                                
                                                                                
 CROP           : Maize            CULTIVAR : FNC3056          ECOTYPE :IB0001  
 STARTING DATE  : MAR 18 1997                                                   
 PLANTING DATE  : APR 17 1997        PLANTS/m2 :  6.2     ROW SPACING :  80.cm  
 WEATHER        : CUNI   1997                                                   
 SOIL           : CCBUGA2017     TEXTURE : CL    -   Suelo Buga MADR Fase I     
 SOIL INITIAL C : DEPTH: 90cm EXTR. H2O: 83.9mm  NO3:151.4kg/ha  NH4: 62.4kg/ha 
 WATER BALANCE  : RAINFED                                                       
 IRRIGATION     : NOT IRRIGATED                                                 
 NITROGEN BAL.  : SOIL-N & N-UPTAKE SIMULATION; NO N-FIXATION                   
 N-FERTILIZER   :      161 kg/ha IN     5 APPLICATIONS                          
 RESIDUE/MANURE : INITIAL :     0 kg/ha ;       0 kg/ha IN     0 APPLICATIONS   
 ENVIRONM. OPT. : DAYL=    0.00  SRAD=    0.00  TMAX=    0.00  TMIN=    0.00    
                  RAIN=    0.00  CO2 =    0.00  DEW =    0.00  WIND=    0.00    
 SIMULATION OPT : WATER   :Y  NITROGEN:Y  N-FIX:N  PHOSPH :N  PESTS  :N         
                  PHOTO   :C  ET      :R  INFIL:S  HYDROL :R  SOM    :G         
                  CO2 363ppm  NSWIT   :1  EVAP :S  SOIL   :2  STEMP  :D         
 MANAGEMENT OPT : PLANTING:R  IRRIG   :N  FERT :D  RESIDUE:R  HARVEST:M         
                  WEATHER :M  TILLAGE :N                                        
                                                                                
*SUMMARY OF SOIL AND GENETIC INPUT PARAMETERS                                   
                                                                                
   SOIL LOWER UPPER   SAT  EXTR  INIT   ROOT   BULK     pH    NO3    NH4    ORG 
  DEPTH LIMIT LIMIT    SW    SW    SW   DIST   DENS                          C  
   cm   cm3/cm3    cm3/cm3    cm3/cm3         g/cm3         ugN/g  ugN/g     %  
------------------------------------------------------------------------------- 
  0-  5 0.215 0.331 0.341 0.116 0.319   1.00   1.68   6.70  11.90   4.21   0.75 
  5- 15 0.215 0.331 0.341 0.116 0.319   1.00   1.68   6.70  11.90   4.21   0.75 
 15- 25 0.215 0.331 0.341 0.116 0.319   1.00   1.68   6.70  11.90   4.21   0.75 
 25- 35 0.181 0.291 0.364 0.110 0.331   0.50   1.61   7.20  12.15   4.32   0.53 
 35- 45 0.181 0.291 0.364 0.110 0.344   0.50   1.61   7.20  12.40   4.44   0.53 
 45- 67 0.096 0.169 0.404 0.073 0.290   0.27   1.51   7.00  10.67   4.47   0.05 
 67- 90 0.096 0.169 0.404 0.073 0.195   0.27   1.51   7.00   7.63   4.53   0.05 
                                                                                
TOT- 90  13.3  21.7  34.0   8.4  25.6  <--cm   -  kg/ha-->  151.4   62.4  51964 
SOIL ALBEDO    : 0.09      EVAPORATION LIMIT : 6.00         MIN. FACTOR  : 1.00 
RUNOFF CURVE # :76.00      DRAINAGE RATE     : 0.60         FERT. FACTOR : 1.00 
                                                                                
 Maize      CULTIVAR :CI0003-FNC3056            ECOTYPE :IB0001                 
 P1     : 233.00  P2     : 0.5000  P5     : 976.00                              
 G2     : 956.00  G3     :  7.500  PHINT  : 45.600                              


*SIMULATED CROP AND SOIL STATUS AT MAIN DEVELOPMENT STAGES

 RUN NO.     4     P04/17                  

        CROP GROWTH     BIOMASS         LEAF   CROP N     STRESS      STRESS                                           
   DATE  AGE STAGE        kg/ha    LAI   NUM  kg/ha  %   H2O  Nitr Phos1 Phos2  RSTG                                   
 ------  --- ----------   -----  -----  ----  ---  ---  ----  ----  ----  ----  ----                                   
 18 MAR    0 Start Sim        0   0.00   0.0    0  0.0  0.00  0.00  0.00  0.00     7
 17 APR    0 Sowing           0   0.00   0.0    0  0.0  0.00  0.00  0.00  0.00     8
 18 APR    1 Germinate        0   0.00   0.0    0  0.0  0.00  0.00  0.00  0.00     9
 23 APR    6 Emergence       25   0.00   2.1    1  4.4  0.00  0.01  0.00  0.00     1
  6 MAY   19 End Juveni     113   0.24   7.6    4  3.4  0.00  0.00  0.00  0.00     2
 14 MAY   27 Floral Ini     344   0.61  10.7   12  3.6  0.00  0.00  0.00  0.00     3
 22 JUN   66 75% Silkin    6848   3.82  22.0  134  2.0  0.00  0.00  0.00  0.00     4
  2 JUL   76 Beg Gr Fil    9079   3.62  22.0  134  1.5  0.00  0.00  0.00  0.00     5
 15 AUG  120 End Gr Fil   13537   1.04  22.0  152  1.1  0.65  0.00  0.00  0.00     6
 18 AUG  123 Maturity     13537   1.04  22.0  152  1.1  0.94  0.00  0.00  0.00    10
 18 AUG  123 Harvest      13537   1.04  22.0  152  1.1  0.00  0.00  0.00  0.00    10


*MAIN GROWTH AND DEVELOPMENT VARIABLES

@     VARIABLE                                         SIMULATED     MEASURED
      --------                                         ---------     --------
      Anthesis day (dap)                                      66          -99
      Physiological maturity day (dap)                       123          -99
      Yield at harvest maturity (kg [dm]/ha)                5694          -99
      Number at maturity (no/m2)                            3073          -99
      Unit wt at maturity (g [dm]/unit)                   0.1853          -99
      Number at maturity (no/unit)                         495.6          -99
      Tops weight at maturity (kg [dm]/ha)                 13537          -99
      By-product produced (stalk) at maturity (kg[dm]/ha    7906          -99
      Leaf area index, maximum                              4.02          -99
      Harvest index at maturity                            0.421          -99
      Grain N at maturity (kg/ha)                            102          -99
      Tops N at maturity (kg/ha)                             152          -99
      Stem N at maturity (kg/ha)                              50          -99
      Grain N at maturity (%)                                1.8          -99
      Tops weight at anthesis (kg [dm]/ha)                  6508          -99
      Tops N at anthesis (kg/ha)                             132          -99
      Leaf number per stem at maturity                     22.00          -99
      Emergence day (dap)                                      6          -99


*ENVIRONMENTAL AND STRESS FACTORS

 |-----Development Phase------|--------------------------------------Environment--------------------------------------|-----------------Stress-----------------|
                              |---------------Average--------------|-----Cumulative-----|--------Count of days--------|          (0=Min, 1=Max Stress)         |
                         Time  Temp  Temp  Temp Solar Photop                Evapo    Pot TMIN TMIN TMAX TMAX TMAX RAIN|----Water----|---Nitrogen--|-Phosphorus-|
                         Span   Max   Min  Mean   Rad  [day]    CO2   Rain  Trans     ET   <    <    >    >    >    >   Photo         Photo         Photo
                         days    邂    邂    邂 MJ/m2     hr    ppm     mm     mm     mm  0邂  2邂 30邂 32邂 34邂  0mm  synth Growth  synth Growth  synth Growth
----------------------------------------------------------------------------------------------------------------------------------------------------------------
 Emergence-End Juvenile    13  30.5  18.5  24.5  17.3  24.00  363.4   35.0   36.7   62.4    0    0    7    4    0    3  0.000  0.000  0.002  0.006  0.000  0.000
 End Juvenil-Floral Init    8  30.5  19.0  24.8  15.1  24.00  363.4   51.0   23.7   32.7    0    0    6    1    0    5  0.000  0.000  0.000  0.000  0.000  0.000
 Floral Init-End Lf Grow   39  29.5  18.9  24.2  14.1  24.00  363.6  158.0  127.3  132.7    0    0   16    2    0   12  0.000  0.000  0.000  0.000  0.000  0.000
 End Lf Grth-Beg Grn Fil   10  30.6  18.0  24.3  16.0  24.00  363.7   25.0   37.5   37.6    0    0    6    1    0    5  0.000  0.000  0.000  0.000  0.000  0.000
 Grain Filling Phase       44  32.7  18.1  25.4  18.3  24.00  363.8   55.2   95.0  201.1    0    0   43   25   10    6  0.556  0.628  0.000  0.000  0.000  0.000


 Planting to Harvest      123  31.0  18.5  24.8  16.1  24.00  363.6  362.2  334.3  499.2    0    0   84   37   10   36  0.221  0.247  0.000  0.001  0.000  0.000
----------------------------------------------------------------------------------------------------------------------------------------------------------------


*Resource Productivity
 Growing season length: 123 days 

 Precipitation during growing season       362.2 mm[rain]
   Dry Matter Productivity                  3.74 kg[DM]/m3[rain]          =   37.4 kg[DM]/ha per mm[rain]
   Yield Productivity                       1.57 kg[grain yield]/m3[rain] =   15.7 kg[yield]/ha per mm[rain]

 Evapotranspiration during growing season  334.3 mm[ET]
   Dry Matter Productivity                  4.05 kg[DM]/m3[ET]            =   40.5 kg[DM]/ha per mm[ET]
   Yield Productivity                       1.70 kg[grain yield]/m3[ET]   =   17.0 kg[yield]/ha per mm[ET]

 Transpiration during growing season       209.5 mm[EP]
   Dry Matter Productivity                  6.46 kg[DM]/m3[EP]            =   64.6 kg[DM]/ha per mm[EP]
   Yield Productivity                       2.72 kg[grain yield]/m3[EP]   =   27.2 kg[yield]/ha per mm[EP]

 N applied during growing season            161. kg[N applied]/ha
   Dry Matter Productivity                  84.1 kg[DM]/kg[N applied]
   Yield Productivity                       35.4 kg[yield]/kg[N applied]

 N uptake during growing season              166 kg[N uptake]/ha
   Dry Matter Productivity                  81.5 kg[DM]/kg[N uptake]
   Yield Productivity                       34.3 kg[yield]/kg[N uptake]

--------------------------------------------------------------------------------------------------------------

                     Maize YIELD :     5694 kg/ha    [Dry weight] 

**************************************************************************************************************

*DSSAT Cropping System Model Ver. 4.6.1.000 -release      OCT 02, 2017; 13:30:02
                                                                                
*RUN   5        : P04/22                    MZCER046 ANBU1997    5              
 MODEL          : MZCER046 - Maize                                              
 EXPERIMENT     : ANBU1997 MZ  Analisis a침os de bajo rendimiento Buga          
 DATA PATH      : C:\DSSAT46\maize\                                             
 TREATMENT  5   : P04/22                    MZCER046                            
                                                                                
                                                                                
 CROP           : Maize            CULTIVAR : FNC3056          ECOTYPE :IB0001  
 STARTING DATE  : MAR 23 1997                                                   
 PLANTING DATE  : APR 22 1997        PLANTS/m2 :  6.2     ROW SPACING :  80.cm  
 WEATHER        : CUNI   1997                                                   
 SOIL           : CCBUGA2017     TEXTURE : CL    -   Suelo Buga MADR Fase I     
 SOIL INITIAL C : DEPTH: 90cm EXTR. H2O: 83.9mm  NO3:151.4kg/ha  NH4: 62.4kg/ha 
 WATER BALANCE  : RAINFED                                                       
 IRRIGATION     : NOT IRRIGATED                                                 
 NITROGEN BAL.  : SOIL-N & N-UPTAKE SIMULATION; NO N-FIXATION                   
 N-FERTILIZER   :      161 kg/ha IN     5 APPLICATIONS                          
 RESIDUE/MANURE : INITIAL :     0 kg/ha ;       0 kg/ha IN     0 APPLICATIONS   
 ENVIRONM. OPT. : DAYL=    0.00  SRAD=    0.00  TMAX=    0.00  TMIN=    0.00    
                  RAIN=    0.00  CO2 =    0.00  DEW =    0.00  WIND=    0.00    
 SIMULATION OPT : WATER   :Y  NITROGEN:Y  N-FIX:N  PHOSPH :N  PESTS  :N         
                  PHOTO   :C  ET      :R  INFIL:S  HYDROL :R  SOM    :G         
                  CO2 363ppm  NSWIT   :1  EVAP :S  SOIL   :2  STEMP  :D         
 MANAGEMENT OPT : PLANTING:R  IRRIG   :N  FERT :D  RESIDUE:R  HARVEST:M         
                  WEATHER :M  TILLAGE :N                                        
                                                                                
*SUMMARY OF SOIL AND GENETIC INPUT PARAMETERS                                   
                                                                                
   SOIL LOWER UPPER   SAT  EXTR  INIT   ROOT   BULK     pH    NO3    NH4    ORG 
  DEPTH LIMIT LIMIT    SW    SW    SW   DIST   DENS                          C  
   cm   cm3/cm3    cm3/cm3    cm3/cm3         g/cm3         ugN/g  ugN/g     %  
------------------------------------------------------------------------------- 
  0-  5 0.215 0.331 0.341 0.116 0.319   1.00   1.68   6.70  11.90   4.21   0.75 
  5- 15 0.215 0.331 0.341 0.116 0.319   1.00   1.68   6.70  11.90   4.21   0.75 
 15- 25 0.215 0.331 0.341 0.116 0.319   1.00   1.68   6.70  11.90   4.21   0.75 
 25- 35 0.181 0.291 0.364 0.110 0.331   0.50   1.61   7.20  12.15   4.32   0.53 
 35- 45 0.181 0.291 0.364 0.110 0.344   0.50   1.61   7.20  12.40   4.44   0.53 
 45- 67 0.096 0.169 0.404 0.073 0.290   0.27   1.51   7.00  10.67   4.47   0.05 
 67- 90 0.096 0.169 0.404 0.073 0.195   0.27   1.51   7.00   7.63   4.53   0.05 
                                                                                
TOT- 90  13.3  21.7  34.0   8.4  25.6  <--cm   -  kg/ha-->  151.4   62.4  51964 
SOIL ALBEDO    : 0.09      EVAPORATION LIMIT : 6.00         MIN. FACTOR  : 1.00 
RUNOFF CURVE # :76.00      DRAINAGE RATE     : 0.60         FERT. FACTOR : 1.00 
                                                                                
 Maize      CULTIVAR :CI0003-FNC3056            ECOTYPE :IB0001                 
 P1     : 233.00  P2     : 0.5000  P5     : 976.00                              
 G2     : 956.00  G3     :  7.500  PHINT  : 45.600                              


*SIMULATED CROP AND SOIL STATUS AT MAIN DEVELOPMENT STAGES

 RUN NO.     5     P04/22                  

        CROP GROWTH     BIOMASS         LEAF   CROP N     STRESS      STRESS                                           
   DATE  AGE STAGE        kg/ha    LAI   NUM  kg/ha  %   H2O  Nitr Phos1 Phos2  RSTG                                   
 ------  --- ----------   -----  -----  ----  ---  ---  ----  ----  ----  ----  ----                                   
 23 MAR    0 Start Sim        0   0.00   0.0    0  0.0  0.00  0.00  0.00  0.00     7
 22 APR    0 Sowing           0   0.00   0.0    0  0.0  0.00  0.00  0.00  0.00     8
 23 APR    1 Germinate        0   0.00   0.0    0  0.0  0.00  0.00  0.00  0.00     9
 28 APR    6 Emergence       25   0.00   2.1    1  4.4  0.00  0.01  0.00  0.00     1
 11 MAY   19 End Juveni      99   0.21   7.7    4  3.7  0.00  0.00  0.00  0.00     2
 19 MAY   27 Floral Ini     407   0.70  10.8   15  3.6  0.00  0.00  0.00  0.00     3
 27 JUN   66 75% Silkin    6931   3.85  22.4  141  2.0  0.00  0.00  0.00  0.00     4
  8 JUL   77 Beg Gr Fil    9679   3.50  22.4  142  1.5  0.21  0.00  0.00  0.00     5
 20 AUG  120 End Gr Fil   13014   0.84  22.4  147  1.1  0.73  0.00  0.00  0.00     6
 23 AUG  123 Maturity     13014   0.84  22.4  147  1.1  0.95  0.00  0.00  0.00    10
 23 AUG  123 Harvest      13014   0.84  22.4  147  1.1  0.00  0.00  0.00  0.00    10


*MAIN GROWTH AND DEVELOPMENT VARIABLES

@     VARIABLE                                         SIMULATED     MEASURED
      --------                                         ---------     --------
      Anthesis day (dap)                                      66          -99
      Physiological maturity day (dap)                       123          -99
      Yield at harvest maturity (kg [dm]/ha)                4979          -99
      Number at maturity (no/m2)                            3337          -99
      Unit wt at maturity (g [dm]/unit)                   0.1492          -99
      Number at maturity (no/unit)                         538.3          -99
      Tops weight at maturity (kg [dm]/ha)                 13014          -99
      By-product produced (stalk) at maturity (kg[dm]/ha    8101          -99
      Leaf area index, maximum                              4.03          -99
      Harvest index at maturity                            0.383          -99
      Grain N at maturity (kg/ha)                             91          -99
      Tops N at maturity (kg/ha)                             147          -99
      Stem N at maturity (kg/ha)                              56          -99
      Grain N at maturity (%)                                1.8          -99
      Tops weight at anthesis (kg [dm]/ha)                  6669          -99
      Tops N at anthesis (kg/ha)                             138          -99
      Leaf number per stem at maturity                     22.43          -99
      Emergence day (dap)                                      6          -99


*ENVIRONMENTAL AND STRESS FACTORS

 |-----Development Phase------|--------------------------------------Environment--------------------------------------|-----------------Stress-----------------|
                              |---------------Average--------------|-----Cumulative-----|--------Count of days--------|          (0=Min, 1=Max Stress)         |
                         Time  Temp  Temp  Temp Solar Photop                Evapo    Pot TMIN TMIN TMAX TMAX TMAX RAIN|----Water----|---Nitrogen--|-Phosphorus-|
                         Span   Max   Min  Mean   Rad  [day]    CO2   Rain  Trans     ET   <    <    >    >    >    >   Photo         Photo         Photo
                         days    邂    邂    邂 MJ/m2     hr    ppm     mm     mm     mm  0邂  2邂 30邂 32邂 34邂  0mm  synth Growth  synth Growth  synth Growth
----------------------------------------------------------------------------------------------------------------------------------------------------------------
 Emergence-End Juvenile    13  31.6  18.6  25.1  17.3  24.00  363.4   47.0   25.9   63.0    0    0   11    5    0    4  0.000  0.000  0.002  0.005  0.000  0.000
 End Juvenil-Floral Init    8  29.8  18.7  24.2  15.6  24.00  363.5    7.0   26.6   33.5    0    0    4    1    0    3  0.000  0.000  0.000  0.001  0.000  0.000
 Floral Init-End Lf Grow   39  29.5  18.8  24.1  13.7  24.00  363.6  165.0  122.7  129.2    0    0   15    2    0   14  0.000  0.000  0.000  0.000  0.000  0.000
 End Lf Grth-Beg Grn Fil   11  31.4  17.8  24.6  19.1  24.00  363.7   17.0   45.6   49.8    0    0   10    2    0    2  0.088  0.155  0.000  0.000  0.000  0.000
 Grain Filling Phase       43  32.9  18.2  25.6  18.1  24.00  363.8   55.2   72.8  196.2    0    0   42   27   11    6  0.660  0.719  0.000  0.000  0.000  0.000


 Planting to Harvest      123  31.2  18.5  24.8  16.5  24.00  363.6  332.2  319.2  512.4    0    0   86   40   13   32  0.261  0.289  0.000  0.001  0.000  0.000
----------------------------------------------------------------------------------------------------------------------------------------------------------------


*Resource Productivity
 Growing season length: 123 days 

 Precipitation during growing season       332.2 mm[rain]
   Dry Matter Productivity                  3.92 kg[DM]/m3[rain]          =   39.2 kg[DM]/ha per mm[rain]
   Yield Productivity                       1.50 kg[grain yield]/m3[rain] =   15.0 kg[yield]/ha per mm[rain]

 Evapotranspiration during growing season  319.2 mm[ET]
   Dry Matter Productivity                  4.08 kg[DM]/m3[ET]            =   40.8 kg[DM]/ha per mm[ET]
   Yield Productivity                       1.56 kg[grain yield]/m3[ET]   =   15.6 kg[yield]/ha per mm[ET]

 Transpiration during growing season       194.8 mm[EP]
   Dry Matter Productivity                  6.68 kg[DM]/m3[EP]            =   66.8 kg[DM]/ha per mm[EP]
   Yield Productivity                       2.56 kg[grain yield]/m3[EP]   =   25.6 kg[yield]/ha per mm[EP]

 N applied during growing season            161. kg[N applied]/ha
   Dry Matter Productivity                  80.8 kg[DM]/kg[N applied]
   Yield Productivity                       30.9 kg[yield]/kg[N applied]

 N uptake during growing season              158 kg[N uptake]/ha
   Dry Matter Productivity                  82.4 kg[DM]/kg[N uptake]
   Yield Productivity                       31.5 kg[yield]/kg[N uptake]

--------------------------------------------------------------------------------------------------------------

                     Maize YIELD :     4979 kg/ha    [Dry weight] 

**************************************************************************************************************

*DSSAT Cropping System Model Ver. 4.6.1.000 -release      OCT 02, 2017; 13:30:02
                                                                                
*RUN   6        : P04/27                    MZCER046 ANBU1997    6              
 MODEL          : MZCER046 - Maize                                              
 EXPERIMENT     : ANBU1997 MZ  Analisis a침os de bajo rendimiento Buga          
 DATA PATH      : C:\DSSAT46\maize\                                             
 TREATMENT  6   : P04/27                    MZCER046                            
                                                                                
                                                                                
 CROP           : Maize            CULTIVAR : FNC3056          ECOTYPE :IB0001  
 STARTING DATE  : MAR 28 1997                                                   
 PLANTING DATE  : APR 27 1997        PLANTS/m2 :  6.2     ROW SPACING :  80.cm  
 WEATHER        : CUNI   1997                                                   
 SOIL           : CCBUGA2017     TEXTURE : CL    -   Suelo Buga MADR Fase I     
 SOIL INITIAL C : DEPTH: 90cm EXTR. H2O: 83.9mm  NO3:151.4kg/ha  NH4: 62.4kg/ha 
 WATER BALANCE  : RAINFED                                                       
 IRRIGATION     : NOT IRRIGATED                                                 
 NITROGEN BAL.  : SOIL-N & N-UPTAKE SIMULATION; NO N-FIXATION                   
 N-FERTILIZER   :      161 kg/ha IN     5 APPLICATIONS                          
 RESIDUE/MANURE : INITIAL :     0 kg/ha ;       0 kg/ha IN     0 APPLICATIONS   
 ENVIRONM. OPT. : DAYL=    0.00  SRAD=    0.00  TMAX=    0.00  TMIN=    0.00    
                  RAIN=    0.00  CO2 =    0.00  DEW =    0.00  WIND=    0.00    
 SIMULATION OPT : WATER   :Y  NITROGEN:Y  N-FIX:N  PHOSPH :N  PESTS  :N         
                  PHOTO   :C  ET      :R  INFIL:S  HYDROL :R  SOM    :G         
                  CO2 363ppm  NSWIT   :1  EVAP :S  SOIL   :2  STEMP  :D         
 MANAGEMENT OPT : PLANTING:R  IRRIG   :N  FERT :D  RESIDUE:R  HARVEST:M         
                  WEATHER :M  TILLAGE :N                                        
                                                                                
*SUMMARY OF SOIL AND GENETIC INPUT PARAMETERS                                   
                                                                                
   SOIL LOWER UPPER   SAT  EXTR  INIT   ROOT   BULK     pH    NO3    NH4    ORG 
  DEPTH LIMIT LIMIT    SW    SW    SW   DIST   DENS                          C  
   cm   cm3/cm3    cm3/cm3    cm3/cm3         g/cm3         ugN/g  ugN/g     %  
------------------------------------------------------------------------------- 
  0-  5 0.215 0.331 0.341 0.116 0.319   1.00   1.68   6.70  11.90   4.21   0.75 
  5- 15 0.215 0.331 0.341 0.116 0.319   1.00   1.68   6.70  11.90   4.21   0.75 
 15- 25 0.215 0.331 0.341 0.116 0.319   1.00   1.68   6.70  11.90   4.21   0.75 
 25- 35 0.181 0.291 0.364 0.110 0.331   0.50   1.61   7.20  12.15   4.32   0.53 
 35- 45 0.181 0.291 0.364 0.110 0.344   0.50   1.61   7.20  12.40   4.44   0.53 
 45- 67 0.096 0.169 0.404 0.073 0.290   0.27   1.51   7.00  10.67   4.47   0.05 
 67- 90 0.096 0.169 0.404 0.073 0.195   0.27   1.51   7.00   7.63   4.53   0.05 
                                                                                
TOT- 90  13.3  21.7  34.0   8.4  25.6  <--cm   -  kg/ha-->  151.4   62.4  51964 
SOIL ALBEDO    : 0.09      EVAPORATION LIMIT : 6.00         MIN. FACTOR  : 1.00 
RUNOFF CURVE # :76.00      DRAINAGE RATE     : 0.60         FERT. FACTOR : 1.00 
                                                                                
 Maize      CULTIVAR :CI0003-FNC3056            ECOTYPE :IB0001                 
 P1     : 233.00  P2     : 0.5000  P5     : 976.00                              
 G2     : 956.00  G3     :  7.500  PHINT  : 45.600                              


*SIMULATED CROP AND SOIL STATUS AT MAIN DEVELOPMENT STAGES

 RUN NO.     6     P04/27                  

        CROP GROWTH     BIOMASS         LEAF   CROP N     STRESS      STRESS                                           
   DATE  AGE STAGE        kg/ha    LAI   NUM  kg/ha  %   H2O  Nitr Phos1 Phos2  RSTG                                   
 ------  --- ----------   -----  -----  ----  ---  ---  ----  ----  ----  ----  ----                                   
 28 MAR    0 Start Sim        0   0.00   0.0    0  0.0  0.00  0.00  0.00  0.00     7
 27 APR    0 Sowing           0   0.00   0.0    0  0.0  0.00  0.00  0.00  0.00     8
 28 APR    1 Germinate        0   0.00   0.0    0  0.0  0.00  0.00  0.00  0.00     9
  3 MAY    6 Emergence       25   0.00   2.1    1  4.4  0.00  0.01  0.00  0.00     1
 16 MAY   19 End Juveni      94   0.20   7.6    3  3.3  0.00  0.00  0.00  0.00     2
 24 MAY   27 Floral Ini     425   0.73  10.8   15  3.6  0.00  0.00  0.00  0.00     3
  3 JUL   67 75% Silkin    7256   3.81  22.7  144  2.0  0.00  0.00  0.00  0.00     4
 13 JUL   77 Beg Gr Fil    8406   2.95  22.7  145  1.7  0.64  0.00  0.00  0.00     5
 25 AUG  120 End Gr Fil   11121   0.66  22.7  145  1.3  0.75  0.00  0.00  0.00     6
 28 AUG  123 Maturity     11121   0.66  22.7  145  1.3  0.97  0.00  0.00  0.00    10
 28 AUG  123 Harvest      11121   0.66  22.7  145  1.3  0.00  0.00  0.00  0.00    10


*MAIN GROWTH AND DEVELOPMENT VARIABLES

@     VARIABLE                                         SIMULATED     MEASURED
      --------                                         ---------     --------
      Anthesis day (dap)                                      67          -99
      Physiological maturity day (dap)                       123          -99
      Yield at harvest maturity (kg [dm]/ha)                4235          -99
      Number at maturity (no/m2)                            2143          -99
      Unit wt at maturity (g [dm]/unit)                   0.1976          -99
      Number at maturity (no/unit)                         345.6          -99
      Tops weight at maturity (kg [dm]/ha)                 11121          -99
      By-product produced (stalk) at maturity (kg[dm]/ha    6949          -99
      Leaf area index, maximum                              3.99          -99
      Harvest index at maturity                            0.381          -99
      Grain N at maturity (kg/ha)                             78          -99
      Tops N at maturity (kg/ha)                             145          -99
      Stem N at maturity (kg/ha)                              67          -99
      Grain N at maturity (%)                                1.8          -99
      Tops weight at anthesis (kg [dm]/ha)                  6935          -99
      Tops N at anthesis (kg/ha)                             140          -99
      Leaf number per stem at maturity                     22.67          -99
      Emergence day (dap)                                      6          -99


*ENVIRONMENTAL AND STRESS FACTORS

 |-----Development Phase------|--------------------------------------Environment--------------------------------------|-----------------Stress-----------------|
                              |---------------Average--------------|-----Cumulative-----|--------Count of days--------|          (0=Min, 1=Max Stress)         |
                         Time  Temp  Temp  Temp Solar Photop                Evapo    Pot TMIN TMIN TMAX TMAX TMAX RAIN|----Water----|---Nitrogen--|-Phosphorus-|
                         Span   Max   Min  Mean   Rad  [day]    CO2   Rain  Trans     ET   <    <    >    >    >    >   Photo         Photo         Photo
                         days    邂    邂    邂 MJ/m2     hr    ppm     mm     mm     mm  0邂  2邂 30邂 32邂 34邂  0mm  synth Growth  synth Growth  synth Growth
----------------------------------------------------------------------------------------------------------------------------------------------------------------
 Emergence-End Juvenile    13  30.6  18.7  24.6  15.7  24.00  363.4   54.0   35.2   56.9    0    0    8    3    0    7  0.000  0.000  0.002  0.004  0.000  0.000
 End Juvenil-Floral Init    8  31.2  18.8  25.0  16.2  24.00  363.5   12.0   16.3   34.9    0    0    7    1    0    1  0.000  0.000  0.000  0.001  0.000  0.000
 Floral Init-End Lf Grow   40  29.5  18.7  24.1  14.3  24.00  363.6  170.0  133.7  137.8    0    0   16    2    0   15  0.000  0.000  0.000  0.000  0.000  0.000
 End Lf Grth-Beg Grn Fil   10  31.5  18.3  24.9  18.3  24.00  363.7    0.0   26.9   43.7    0    0    9    2    0    0  0.411  0.555  0.000  0.000  0.000  0.000
 Grain Filling Phase       43  33.2  18.0  25.6  18.4  24.00  363.8   55.2   66.8  201.8    0    0   43   32   14    6  0.700  0.746  0.000  0.000  0.000  0.000


 Planting to Harvest      123  31.4  18.4  24.9  16.5  24.00  363.7  292.1  294.5  517.7    0    0   90   45   14   30  0.302  0.330  0.000  0.001  0.000  0.000
----------------------------------------------------------------------------------------------------------------------------------------------------------------


*Resource Productivity
 Growing season length: 123 days 

 Precipitation during growing season       292.1 mm[rain]
   Dry Matter Productivity                  3.81 kg[DM]/m3[rain]          =   38.1 kg[DM]/ha per mm[rain]
   Yield Productivity                       1.45 kg[grain yield]/m3[rain] =   14.5 kg[yield]/ha per mm[rain]

 Evapotranspiration during growing season  294.5 mm[ET]
   Dry Matter Productivity                  3.78 kg[DM]/m3[ET]            =   37.8 kg[DM]/ha per mm[ET]
   Yield Productivity                       1.44 kg[grain yield]/m3[ET]   =   14.4 kg[yield]/ha per mm[ET]

 Transpiration during growing season       175.9 mm[EP]
   Dry Matter Productivity                  6.32 kg[DM]/m3[EP]            =   63.2 kg[DM]/ha per mm[EP]
   Yield Productivity                       2.41 kg[grain yield]/m3[EP]   =   24.1 kg[yield]/ha per mm[EP]

 N applied during growing season            161. kg[N applied]/ha
   Dry Matter Productivity                  69.1 kg[DM]/kg[N applied]
   Yield Productivity                       26.3 kg[yield]/kg[N applied]

 N uptake during growing season              158 kg[N uptake]/ha
   Dry Matter Productivity                  70.4 kg[DM]/kg[N uptake]
   Yield Productivity                       26.8 kg[yield]/kg[N uptake]

--------------------------------------------------------------------------------------------------------------

                     Maize YIELD :     4235 kg/ha    [Dry weight] 

**************************************************************************************************************

*DSSAT Cropping System Model Ver. 4.6.1.000 -release      OCT 02, 2017; 13:30:02
                                                                                
*RUN   7        : P05/02                    MZCER046 ANBU1997    7              
 MODEL          : MZCER046 - Maize                                              
 EXPERIMENT     : ANBU1997 MZ  Analisis a침os de bajo rendimiento Buga          
 DATA PATH      : C:\DSSAT46\maize\                                             
 TREATMENT  7   : P05/02                    MZCER046                            
                                                                                
                                                                                
 CROP           : Maize            CULTIVAR : FNC3056          ECOTYPE :IB0001  
 STARTING DATE  : APR  2 1997                                                   
 PLANTING DATE  : MAY  2 1997        PLANTS/m2 :  6.2     ROW SPACING :  80.cm  
 WEATHER        : CUNI   1997                                                   
 SOIL           : CCBUGA2017     TEXTURE : CL    -   Suelo Buga MADR Fase I     
 SOIL INITIAL C : DEPTH: 90cm EXTR. H2O: 83.9mm  NO3:151.4kg/ha  NH4: 62.4kg/ha 
 WATER BALANCE  : RAINFED                                                       
 IRRIGATION     : NOT IRRIGATED                                                 
 NITROGEN BAL.  : SOIL-N & N-UPTAKE SIMULATION; NO N-FIXATION                   
 N-FERTILIZER   :      161 kg/ha IN     5 APPLICATIONS                          
 RESIDUE/MANURE : INITIAL :     0 kg/ha ;       0 kg/ha IN     0 APPLICATIONS   
 ENVIRONM. OPT. : DAYL=    0.00  SRAD=    0.00  TMAX=    0.00  TMIN=    0.00    
                  RAIN=    0.00  CO2 =    0.00  DEW =    0.00  WIND=    0.00    
 SIMULATION OPT : WATER   :Y  NITROGEN:Y  N-FIX:N  PHOSPH :N  PESTS  :N         
                  PHOTO   :C  ET      :R  INFIL:S  HYDROL :R  SOM    :G         
                  CO2 363ppm  NSWIT   :1  EVAP :S  SOIL   :2  STEMP  :D         
 MANAGEMENT OPT : PLANTING:R  IRRIG   :N  FERT :D  RESIDUE:R  HARVEST:M         
                  WEATHER :M  TILLAGE :N                                        
                                                                                
*SUMMARY OF SOIL AND GENETIC INPUT PARAMETERS                                   
                                                                                
   SOIL LOWER UPPER   SAT  EXTR  INIT   ROOT   BULK     pH    NO3    NH4    ORG 
  DEPTH LIMIT LIMIT    SW    SW    SW   DIST   DENS                          C  
   cm   cm3/cm3    cm3/cm3    cm3/cm3         g/cm3         ugN/g  ugN/g     %  
------------------------------------------------------------------------------- 
  0-  5 0.215 0.331 0.341 0.116 0.319   1.00   1.68   6.70  11.90   4.21   0.75 
  5- 15 0.215 0.331 0.341 0.116 0.319   1.00   1.68   6.70  11.90   4.21   0.75 
 15- 25 0.215 0.331 0.341 0.116 0.319   1.00   1.68   6.70  11.90   4.21   0.75 
 25- 35 0.181 0.291 0.364 0.110 0.331   0.50   1.61   7.20  12.15   4.32   0.53 
 35- 45 0.181 0.291 0.364 0.110 0.344   0.50   1.61   7.20  12.40   4.44   0.53 
 45- 67 0.096 0.169 0.404 0.073 0.290   0.27   1.51   7.00  10.67   4.47   0.05 
 67- 90 0.096 0.169 0.404 0.073 0.195   0.27   1.51   7.00   7.63   4.53   0.05 
                                                                                
TOT- 90  13.3  21.7  34.0   8.4  25.6  <--cm   -  kg/ha-->  151.4   62.4  51964 
SOIL ALBEDO    : 0.09      EVAPORATION LIMIT : 6.00         MIN. FACTOR  : 1.00 
RUNOFF CURVE # :76.00      DRAINAGE RATE     : 0.60         FERT. FACTOR : 1.00 
                                                                                
 Maize      CULTIVAR :CI0003-FNC3056            ECOTYPE :IB0001                 
 P1     : 233.00  P2     : 0.5000  P5     : 976.00                              
 G2     : 956.00  G3     :  7.500  PHINT  : 45.600                              


*SIMULATED CROP AND SOIL STATUS AT MAIN DEVELOPMENT STAGES

 RUN NO.     7     P05/02                  

        CROP GROWTH     BIOMASS         LEAF   CROP N     STRESS      STRESS                                           
   DATE  AGE STAGE        kg/ha    LAI   NUM  kg/ha  %   H2O  Nitr Phos1 Phos2  RSTG                                   
 ------  --- ----------   -----  -----  ----  ---  ---  ----  ----  ----  ----  ----                                   
  2 APR    0 Start Sim        0   0.00   0.0    0  0.0  0.00  0.00  0.00  0.00     7
  2 MAY    0 Sowing           0   0.00   0.0    0  0.0  0.00  0.00  0.00  0.00     8
  3 MAY    1 Germinate        0   0.00   0.0    0  0.0  0.00  0.00  0.00  0.00     9
  8 MAY    6 Emergence       25   0.00   2.1    1  4.4  0.00  0.01  0.00  0.00     1
 21 MAY   19 End Juveni     103   0.22   7.6    4  3.5  0.00  0.00  0.00  0.00     2
 29 MAY   27 Floral Ini     341   0.61  10.6   12  3.6  0.00  0.00  0.00  0.00     3
  7 JUL   66 75% Silkin    6608   3.54  22.2  137  2.1  0.05  0.00  0.00  0.00     4
 17 JUL   76 Beg Gr Fil    6943   2.46  22.2  137  2.0  0.81  0.00  0.00  0.00     5
 29 AUG  119 End Gr Fil    8649   0.53  22.2  137  1.6  0.76  0.00  0.00  0.00     6
  1 SEP  122 Maturity      8649   0.53  22.2  137  1.6  1.00  0.00  0.00  0.00    10
  1 SEP  122 Harvest       8649   0.53  22.2  137  1.6  0.00  0.00  0.00  0.00    10


*MAIN GROWTH AND DEVELOPMENT VARIABLES

@     VARIABLE                                         SIMULATED     MEASURED
      --------                                         ---------     --------
      Anthesis day (dap)                                      66          -99
      Physiological maturity day (dap)                       122          -99
      Yield at harvest maturity (kg [dm]/ha)                2254          -99
      Number at maturity (no/m2)                            1155          -99
      Unit wt at maturity (g [dm]/unit)                   0.1952          -99
      Number at maturity (no/unit)                         186.3          -99
      Tops weight at maturity (kg [dm]/ha)                  8649          -99
      By-product produced (stalk) at maturity (kg[dm]/ha    6455          -99
      Leaf area index, maximum                              3.70          -99
      Harvest index at maturity                            0.261          -99
      Grain N at maturity (kg/ha)                             41          -99
      Tops N at maturity (kg/ha)                             137          -99
      Stem N at maturity (kg/ha)                              96          -99
      Grain N at maturity (%)                                1.8          -99
      Tops weight at anthesis (kg [dm]/ha)                  6484          -99
      Tops N at anthesis (kg/ha)                             135          -99
      Leaf number per stem at maturity                     22.21          -99
      Emergence day (dap)                                      6          -99


*ENVIRONMENTAL AND STRESS FACTORS

 |-----Development Phase------|--------------------------------------Environment--------------------------------------|-----------------Stress-----------------|
                              |---------------Average--------------|-----Cumulative-----|--------Count of days--------|          (0=Min, 1=Max Stress)         |
                         Time  Temp  Temp  Temp Solar Photop                Evapo    Pot TMIN TMIN TMAX TMAX TMAX RAIN|----Water----|---Nitrogen--|-Phosphorus-|
                         Span   Max   Min  Mean   Rad  [day]    CO2   Rain  Trans     ET   <    <    >    >    >    >   Photo         Photo         Photo
                         days    邂    邂    邂 MJ/m2     hr    ppm     mm     mm     mm  0邂  2邂 30邂 32邂 34邂  0mm  synth Growth  synth Growth  synth Growth
----------------------------------------------------------------------------------------------------------------------------------------------------------------
 Emergence-End Juvenile    13  30.5  19.0  24.7  15.3  24.00  363.5   40.0   36.7   55.4    0    0    9    2    0    5  0.000  0.000  0.002  0.005  0.000  0.000
 End Juvenil-Floral Init    8  29.6  19.2  24.4  13.5  24.00  363.5   30.0   17.3   29.0    0    0    3    1    0    3  0.000  0.000  0.000  0.001  0.000  0.000
 Floral Init-End Lf Grow   39  29.8  18.4  24.1  15.3  24.00  363.6  152.0  135.6  145.3    0    0   19    3    0   13  0.019  0.038  0.000  0.000  0.000  0.000
 End Lf Grth-Beg Grn Fil   10  31.9  18.4  25.1  17.6  24.00  363.7    3.0   15.5   42.5    0    0    9    2    1    1  0.678  0.786  0.000  0.000  0.000  0.000
 Grain Filling Phase       43  33.3  18.0  25.7  18.3  24.00  363.9   53.1   62.9  202.3    0    0   43   34   14    6  0.714  0.756  0.000  0.000  0.000  0.000


 Planting to Harvest      122  31.5  18.3  24.9  16.6  23.95  363.7  292.1  274.6  516.8    0    0   91   47   16   30  0.338  0.367  0.000  0.001  0.000  0.000
----------------------------------------------------------------------------------------------------------------------------------------------------------------


*Resource Productivity
 Growing season length: 122 days 

 Precipitation during growing season       292.1 mm[rain]
   Dry Matter Productivity                  2.96 kg[DM]/m3[rain]          =   29.6 kg[DM]/ha per mm[rain]
   Yield Productivity                       0.77 kg[grain yield]/m3[rain] =    7.7 kg[yield]/ha per mm[rain]

 Evapotranspiration during growing season  274.6 mm[ET]
   Dry Matter Productivity                  3.15 kg[DM]/m3[ET]            =   31.5 kg[DM]/ha per mm[ET]
   Yield Productivity                       0.82 kg[grain yield]/m3[ET]   =    8.2 kg[yield]/ha per mm[ET]

 Transpiration during growing season       156.1 mm[EP]
   Dry Matter Productivity                  5.54 kg[DM]/m3[EP]            =   55.4 kg[DM]/ha per mm[EP]
   Yield Productivity                       1.44 kg[grain yield]/m3[EP]   =   14.4 kg[yield]/ha per mm[EP]

 N applied during growing season            161. kg[N applied]/ha
   Dry Matter Productivity                  53.7 kg[DM]/kg[N applied]
   Yield Productivity                       14.0 kg[yield]/kg[N applied]

 N uptake during growing season              150 kg[N uptake]/ha
   Dry Matter Productivity                  57.7 kg[DM]/kg[N uptake]
   Yield Productivity                       15.0 kg[yield]/kg[N uptake]

--------------------------------------------------------------------------------------------------------------

                     Maize YIELD :     2254 kg/ha    [Dry weight] 

**************************************************************************************************************

*DSSAT Cropping System Model Ver. 4.6.1.000 -release      OCT 02, 2017; 13:30:02
                                                                                
*RUN   8        : P05/07                    MZCER046 ANBU1997    8              
 MODEL          : MZCER046 - Maize                                              
 EXPERIMENT     : ANBU1997 MZ  Analisis a침os de bajo rendimiento Buga          
 DATA PATH      : C:\DSSAT46\maize\                                             
 TREATMENT  8   : P05/07                    MZCER046                            
                                                                                
                                                                                
 CROP           : Maize            CULTIVAR : FNC3056          ECOTYPE :IB0001  
 STARTING DATE  : APR  7 1997                                                   
 PLANTING DATE  : MAY  7 1997        PLANTS/m2 :  6.2     ROW SPACING :  80.cm  
 WEATHER        : CUNI   1997                                                   
 SOIL           : CCBUGA2017     TEXTURE : CL    -   Suelo Buga MADR Fase I     
 SOIL INITIAL C : DEPTH: 90cm EXTR. H2O: 83.9mm  NO3:151.4kg/ha  NH4: 62.4kg/ha 
 WATER BALANCE  : RAINFED                                                       
 IRRIGATION     : NOT IRRIGATED                                                 
 NITROGEN BAL.  : SOIL-N & N-UPTAKE SIMULATION; NO N-FIXATION                   
 N-FERTILIZER   :      161 kg/ha IN     5 APPLICATIONS                          
 RESIDUE/MANURE : INITIAL :     0 kg/ha ;       0 kg/ha IN     0 APPLICATIONS   
 ENVIRONM. OPT. : DAYL=    0.00  SRAD=    0.00  TMAX=    0.00  TMIN=    0.00    
                  RAIN=    0.00  CO2 =    0.00  DEW =    0.00  WIND=    0.00    
 SIMULATION OPT : WATER   :Y  NITROGEN:Y  N-FIX:N  PHOSPH :N  PESTS  :N         
                  PHOTO   :C  ET      :R  INFIL:S  HYDROL :R  SOM    :G         
                  CO2 363ppm  NSWIT   :1  EVAP :S  SOIL   :2  STEMP  :D         
 MANAGEMENT OPT : PLANTING:R  IRRIG   :N  FERT :D  RESIDUE:R  HARVEST:M         
                  WEATHER :M  TILLAGE :N                                        
                                                                                
*SUMMARY OF SOIL AND GENETIC INPUT PARAMETERS                                   
                                                                                
   SOIL LOWER UPPER   SAT  EXTR  INIT   ROOT   BULK     pH    NO3    NH4    ORG 
  DEPTH LIMIT LIMIT    SW    SW    SW   DIST   DENS                          C  
   cm   cm3/cm3    cm3/cm3    cm3/cm3         g/cm3         ugN/g  ugN/g     %  
------------------------------------------------------------------------------- 
  0-  5 0.215 0.331 0.341 0.116 0.319   1.00   1.68   6.70  11.90   4.21   0.75 
  5- 15 0.215 0.331 0.341 0.116 0.319   1.00   1.68   6.70  11.90   4.21   0.75 
 15- 25 0.215 0.331 0.341 0.116 0.319   1.00   1.68   6.70  11.90   4.21   0.75 
 25- 35 0.181 0.291 0.364 0.110 0.331   0.50   1.61   7.20  12.15   4.32   0.53 
 35- 45 0.181 0.291 0.364 0.110 0.344   0.50   1.61   7.20  12.40   4.44   0.53 
 45- 67 0.096 0.169 0.404 0.073 0.290   0.27   1.51   7.00  10.67   4.47   0.05 
 67- 90 0.096 0.169 0.404 0.073 0.195   0.27   1.51   7.00   7.63   4.53   0.05 
                                                                                
TOT- 90  13.3  21.7  34.0   8.4  25.6  <--cm   -  kg/ha-->  151.4   62.4  51964 
SOIL ALBEDO    : 0.09      EVAPORATION LIMIT : 6.00         MIN. FACTOR  : 1.00 
RUNOFF CURVE # :76.00      DRAINAGE RATE     : 0.60         FERT. FACTOR : 1.00 
                                                                                
 Maize      CULTIVAR :CI0003-FNC3056            ECOTYPE :IB0001                 
 P1     : 233.00  P2     : 0.5000  P5     : 976.00                              
 G2     : 956.00  G3     :  7.500  PHINT  : 45.600                              


*SIMULATED CROP AND SOIL STATUS AT MAIN DEVELOPMENT STAGES

 RUN NO.     8     P05/07                  

        CROP GROWTH     BIOMASS         LEAF   CROP N     STRESS      STRESS                                           
   DATE  AGE STAGE        kg/ha    LAI   NUM  kg/ha  %   H2O  Nitr Phos1 Phos2  RSTG                                   
 ------  --- ----------   -----  -----  ----  ---  ---  ----  ----  ----  ----  ----                                   
  7 APR    0 Start Sim        0   0.00   0.0    0  0.0  0.00  0.00  0.00  0.00     7
  7 MAY    0 Sowing           0   0.00   0.0    0  0.0  0.00  0.00  0.00  0.00     8
  8 MAY    1 Germinate        0   0.00   0.0    0  0.0  0.00  0.00  0.00  0.00     9
 13 MAY    6 Emergence       25   0.00   2.1    1  4.4  0.00  0.01  0.00  0.00     1
 26 MAY   19 End Juveni      87   0.19   7.6    3  3.7  0.00  0.01  0.00  0.00     2
  3 JUN   27 Floral Ini     307   0.56  10.6   11  3.6  0.00  0.00  0.00  0.00     3
 12 JUL   66 75% Silkin    5858   2.95  21.8  127  2.2  0.16  0.00  0.00  0.00     4
 21 JUL   75 Beg Gr Fil    5883   2.00  21.8  127  2.2  0.90  0.00  0.00  0.00     5
  Crop mature on JD 245 due to slowed grain filling
  3 SEP  119 End Gr Fil    6998   0.41  21.8  127  1.8  0.74  0.00  0.00  0.00     6
[...]
 NITROGEN BAL.  : SOIL-N & N-UPTAKE SIMULATION; NO N-FIXATION                   
 N-FERTILIZER   :      161 kg/ha IN     5 APPLICATIONS                          
 RESIDUE/MANURE : INITIAL :     0 kg/ha ;       0 kg/ha IN     0 APPLICATIONS   
 ENVIRONM. OPT. : DAYL=    0.00  SRAD=    0.00  TMAX=    0.00  TMIN=    0.00    
                  RAIN=    0.00  CO2 =    0.00  DEW =    0.00  WIND=    0.00    
 SIMULATION OPT : WATER   :Y  NITROGEN:Y  N-FIX:N  PHOSPH :N  PESTS  :N         
                  PHOTO   :C  ET      :R  INFIL:S  HYDROL :R  SOM    :G         
                  CO2 364ppm  NSWIT   :1  EVAP :S  SOIL   :2  STEMP  :D         
 MANAGEMENT OPT : PLANTING:R  IRRIG   :N  FERT :D  RESIDUE:R  HARVEST:M         
                  WEATHER :M  TILLAGE :N                                        
                                                                                
*SUMMARY OF SOIL AND GENETIC INPUT PARAMETERS                                   
                                                                                
   SOIL LOWER UPPER   SAT  EXTR  INIT   ROOT   BULK     pH    NO3    NH4    ORG 
  DEPTH LIMIT LIMIT    SW    SW    SW   DIST   DENS                          C  
   cm   cm3/cm3    cm3/cm3    cm3/cm3         g/cm3         ugN/g  ugN/g     %  
------------------------------------------------------------------------------- 
  0-  5 0.215 0.331 0.341 0.116 0.319   1.00   1.68   6.70  11.90   4.21   0.75 
  5- 15 0.215 0.331 0.341 0.116 0.319   1.00   1.68   6.70  11.90   4.21   0.75 
 15- 25 0.215 0.331 0.341 0.116 0.319   1.00   1.68   6.70  11.90   4.21   0.75 
 25- 35 0.181 0.291 0.364 0.110 0.331   0.50   1.61   7.20  12.15   4.32   0.53 
 35- 45 0.181 0.291 0.364 0.110 0.344   0.50   1.61   7.20  12.40   4.44   0.53 
 45- 67 0.096 0.169 0.404 0.073 0.290   0.27   1.51   7.00  10.67   4.47   0.05 
 67- 90 0.096 0.169 0.404 0.073 0.195   0.27   1.51   7.00   7.63   4.53   0.05 
                                                                                
TOT- 90  13.3  21.7  34.0   8.4  25.6  <--cm   -  kg/ha-->  151.4   62.4  51964 
SOIL ALBEDO    : 0.09      EVAPORATION LIMIT : 6.00         MIN. FACTOR  : 1.00 
RUNOFF CURVE # :76.00      DRAINAGE RATE     : 0.60         FERT. FACTOR : 1.00 
                                                                                
 Maize      CULTIVAR :CI0003-FNC3056            ECOTYPE :IB0001                 
 P1     : 233.00  P2     : 0.5000  P5     : 976.00                              
 G2     : 956.00  G3     :  7.500  PHINT  : 45.600                              


*SIMULATED CROP AND SOIL STATUS AT MAIN DEVELOPMENT STAGES

 RUN NO.    35     P12/14                  

        CROP GROWTH     BIOMASS         LEAF   CROP N     STRESS      STRESS                                           
   DATE  AGE STAGE        kg/ha    LAI   NUM  kg/ha  %   H2O  Nitr Phos1 Phos2  RSTG                                   
 ------  --- ----------   -----  -----  ----  ---  ---  ----  ----  ----  ----  ----                                   
 14 NOV    0 Start Sim        0   0.00   0.0    0  0.0  0.00  0.00  0.00  0.00     7
 14 DEC    0 Sowing           0   0.00   0.0    0  0.0  0.00  0.00  0.00  0.00     8
 15 DEC    1 Germinate        0   0.00   0.0    0  0.0  0.00  0.00  0.00  0.00     9
 20 DEC    6 Emergence       25   0.00   2.1    1  4.4  0.00  0.01  0.00  0.00     1
  1 JAN   18 End Juveni     120   0.25   7.5    4  3.3  0.04  0.00  0.00  0.00     2
  5 JAN   22 Floral Ini     266   0.50   9.3   10  3.7  0.10  0.00  0.00  0.00     3
  6 FEB   54 75% Silkin    2391   1.09  19.7   57  2.4  0.56  0.00  0.00  0.00     4
 15 FEB   63 Beg Gr Fil    2882   0.98  19.7   57  2.0  0.32  0.00  0.00  0.00     5
 30 MAR  106 End Gr Fil    3966   0.22  19.7   57  1.4  0.73  0.00  0.00  0.00     6
  2 APR  109 Maturity      3966   0.22  19.7   57  1.4  0.00  0.00  0.00  0.00    10
  2 APR  109 Harvest       3966   0.22  19.7   57  1.4  0.00  0.00  0.00  0.00    10


*MAIN GROWTH AND DEVELOPMENT VARIABLES

@     VARIABLE                                         SIMULATED     MEASURED
      --------                                         ---------     --------
      Anthesis day (dap)                                      54          -99
      Physiological maturity day (dap)                       109          -99
      Yield at harvest maturity (kg [dm]/ha)                1530          -99
      Number at maturity (no/m2)                            1024          -99
      Unit wt at maturity (g [dm]/unit)                   0.1494          -99
      Number at maturity (no/unit)                         165.2          -99
      Tops weight at maturity (kg [dm]/ha)                  3966          -99
      By-product produced (stalk) at maturity (kg[dm]/ha    2469          -99
      Leaf area index, maximum                              1.62          -99
      Harvest index at maturity                            0.386          -99
      Grain N at maturity (kg/ha)                             28          -99
      Tops N at maturity (kg/ha)                              57          -99
      Stem N at maturity (kg/ha)                              29          -99
      Grain N at maturity (%)                                1.8          -99
      Tops weight at anthesis (kg [dm]/ha)                  2381          -99
      Tops N at anthesis (kg/ha)                              57          -99
      Leaf number per stem at maturity                     19.69          -99
      Emergence day (dap)                                      6          -99


*ENVIRONMENTAL AND STRESS FACTORS

 |-----Development Phase------|--------------------------------------Environment--------------------------------------|-----------------Stress-----------------|
                              |---------------Average--------------|-----Cumulative-----|--------Count of days--------|          (0=Min, 1=Max Stress)         |
                         Time  Temp  Temp  Temp Solar Photop                Evapo    Pot TMIN TMIN TMAX TMAX TMAX RAIN|----Water----|---Nitrogen--|-Phosphorus-|
                         Span   Max   Min  Mean   Rad  [day]    CO2   Rain  Trans     ET   <    <    >    >    >    >   Photo         Photo         Photo
                         days    邂    邂    邂 MJ/m2     hr    ppm     mm     mm     mm  0邂  2邂 30邂 32邂 34邂  0mm  synth Growth  synth Growth  synth Growth
----------------------------------------------------------------------------------------------------------------------------------------------------------------
 Emergence-End Juvenile    12  32.7  18.0  25.4  17.3   0.00  364.9    9.0    9.1   57.7    0    0   12    8    0    1  0.000  0.030  0.002  0.005  0.000  0.000
 End Juvenil-Floral Init    4  34.2  18.6  26.4  20.1   0.00  364.9    0.0    7.3   22.5    0    0    4    4    2    0  0.000  0.116  0.001  0.002  0.000  0.000
 Floral Init-End Lf Grow   32  33.4  19.0  26.2  18.7   0.00  365.1   11.0   62.9  155.8    0    0   30   27    8    2  0.428  0.536  0.000  0.000  0.000  0.000
 End Lf Grth-Beg Grn Fil    9  31.4  19.1  25.2  13.0   0.00  365.2   45.0   19.0   30.2    0    0    5    4    1    6  0.315  0.412  0.000  0.000  0.000  0.000
 Grain Filling Phase       43  32.5  19.1  25.8  17.8   6.27  365.5   59.3   57.2  205.9    0    0   36   29    5   10  0.677  0.730  0.000  0.000  0.000  0.000


 Planting to Harvest      109  32.6  18.9  25.8  17.5   2.89  365.3  136.1  165.6  509.0    0    0   94   74   16   22  0.419  0.487  0.000  0.001  0.000  0.000
----------------------------------------------------------------------------------------------------------------------------------------------------------------


*Resource Productivity
 Growing season length: 109 days 

 Precipitation during growing season       136.1 mm[rain]
   Dry Matter Productivity                  2.91 kg[DM]/m3[rain]          =   29.1 kg[DM]/ha per mm[rain]
   Yield Productivity                       1.12 kg[grain yield]/m3[rain] =   11.2 kg[yield]/ha per mm[rain]

 Evapotranspiration during growing season  165.6 mm[ET]
   Dry Matter Productivity                  2.39 kg[DM]/m3[ET]            =   23.9 kg[DM]/ha per mm[ET]
   Yield Productivity                       0.92 kg[grain yield]/m3[ET]   =    9.2 kg[yield]/ha per mm[ET]

 Transpiration during growing season        85.0 mm[EP]
   Dry Matter Productivity                  4.67 kg[DM]/m3[EP]            =   46.7 kg[DM]/ha per mm[EP]
   Yield Productivity                       1.80 kg[grain yield]/m3[EP]   =   18.0 kg[yield]/ha per mm[EP]

 N applied during growing season            161. kg[N applied]/ha
   Dry Matter Productivity                  24.6 kg[DM]/kg[N applied]
   Yield Productivity                        9.5 kg[yield]/kg[N applied]

 N uptake during growing season               64 kg[N uptake]/ha
   Dry Matter Productivity                  62.0 kg[DM]/kg[N uptake]
   Yield Productivity                       23.9 kg[yield]/kg[N uptake]

--------------------------------------------------------------------------------------------------------------

                     Maize YIELD :     1530 kg/ha    [Dry weight] 

**************************************************************************************************************

*DSSAT Cropping System Model Ver. 4.6.1.000 -release      OCT 02, 2017; 13:30:06
                                                                                
*RUN  36        : P12/19                    MZCER046 ANBU1997   36              
 MODEL          : MZCER046 - Maize                                              
 EXPERIMENT     : ANBU1997 MZ  Analisis a침os de bajo rendimiento Buga          
 DATA PATH      : C:\DSSAT46\maize\                                             
 TREATMENT 36   : P12/19                    MZCER046                            
                                                                                
                                                                                
 CROP           : Maize            CULTIVAR : FNC3056          ECOTYPE :IB0001  
 STARTING DATE  : NOV 19 1997                                                   
 PLANTING DATE  : DEC 19 1997        PLANTS/m2 :  6.2     ROW SPACING :  80.cm  
 WEATHER        : CUNI   1997                                                   
 SOIL           : CCBUGA2017     TEXTURE : CL    -   Suelo Buga MADR Fase I     
 SOIL INITIAL C : DEPTH: 90cm EXTR. H2O: 83.9mm  NO3:151.4kg/ha  NH4: 62.4kg/ha 
 WATER BALANCE  : RAINFED                                                       
 IRRIGATION     : NOT IRRIGATED                                                 
 NITROGEN BAL.  : SOIL-N & N-UPTAKE SIMULATION; NO N-FIXATION                   
 N-FERTILIZER   :      161 kg/ha IN     5 APPLICATIONS                          
 RESIDUE/MANURE : INITIAL :     0 kg/ha ;       0 kg/ha IN     0 APPLICATIONS   
 ENVIRONM. OPT. : DAYL=    0.00  SRAD=    0.00  TMAX=    0.00  TMIN=    0.00    
                  RAIN=    0.00  CO2 =    0.00  DEW =    0.00  WIND=    0.00    
 SIMULATION OPT : WATER   :Y  NITROGEN:Y  N-FIX:N  PHOSPH :N  PESTS  :N         
                  PHOTO   :C  ET      :R  INFIL:S  HYDROL :R  SOM    :G         
                  CO2 365ppm  NSWIT   :1  EVAP :S  SOIL   :2  STEMP  :D         
 MANAGEMENT OPT : PLANTING:R  IRRIG   :N  FERT :D  RESIDUE:R  HARVEST:M         
                  WEATHER :M  TILLAGE :N                                        
                                                                                
*SUMMARY OF SOIL AND GENETIC INPUT PARAMETERS                                   
                                                                                
   SOIL LOWER UPPER   SAT  EXTR  INIT   ROOT   BULK     pH    NO3    NH4    ORG 
  DEPTH LIMIT LIMIT    SW    SW    SW   DIST   DENS                          C  
   cm   cm3/cm3    cm3/cm3    cm3/cm3         g/cm3         ugN/g  ugN/g     %  
------------------------------------------------------------------------------- 
  0-  5 0.215 0.331 0.341 0.116 0.319   1.00   1.68   6.70  11.90   4.21   0.75 
  5- 15 0.215 0.331 0.341 0.116 0.319   1.00   1.68   6.70  11.90   4.21   0.75 
 15- 25 0.215 0.331 0.341 0.116 0.319   1.00   1.68   6.70  11.90   4.21   0.75 
 25- 35 0.181 0.291 0.364 0.110 0.331   0.50   1.61   7.20  12.15   4.32   0.53 
 35- 45 0.181 0.291 0.364 0.110 0.344   0.50   1.61   7.20  12.40   4.44   0.53 
 45- 67 0.096 0.169 0.404 0.073 0.290   0.27   1.51   7.00  10.67   4.47   0.05 
 67- 90 0.096 0.169 0.404 0.073 0.195   0.27   1.51   7.00   7.63   4.53   0.05 
                                                                                
TOT- 90  13.3  21.7  34.0   8.4  25.6  <--cm   -  kg/ha-->  151.4   62.4  51964 
SOIL ALBEDO    : 0.09      EVAPORATION LIMIT : 6.00         MIN. FACTOR  : 1.00 
RUNOFF CURVE # :76.00      DRAINAGE RATE     : 0.60         FERT. FACTOR : 1.00 
                                                                                
 Maize      CULTIVAR :CI0003-FNC3056            ECOTYPE :IB0001                 
 P1     : 233.00  P2     : 0.5000  P5     : 976.00                              
 G2     : 956.00  G3     :  7.500  PHINT  : 45.600                              


*SIMULATED CROP AND SOIL STATUS AT MAIN DEVELOPMENT STAGES

 RUN NO.    36     P12/19                  

        CROP GROWTH     BIOMASS         LEAF   CROP N     STRESS      STRESS                                           
   DATE  AGE STAGE        kg/ha    LAI   NUM  kg/ha  %   H2O  Nitr Phos1 Phos2  RSTG                                   
 ------  --- ----------   -----  -----  ----  ---  ---  ----  ----  ----  ----  ----                                   
 19 NOV    0 Start Sim        0   0.00   0.0    0  0.0  0.00  0.00  0.00  0.00     7
 19 DEC    0 Sowing           0   0.00   0.0    0  0.0  0.00  0.00  0.00  0.00     8
 20 DEC    1 Germinate        0   0.00   0.0    0  0.0  0.00  0.00  0.00  0.00     9
 25 DEC    6 Emergence       25   0.00   2.1    1  4.4  0.00  0.01  0.00  0.00     1
  6 JAN   18 End Juveni      99   0.21   7.7    3  3.3  0.17  0.00  0.00  0.00     2
 10 JAN   22 Floral Ini     213   0.41   9.3    8  3.7  0.12  0.00  0.00  0.00     3
 10 FEB   53 75% Silkin    2342   1.15  19.4   52  2.2  0.54  0.00  0.00  0.00     4
 20 FEB   63 Beg Gr Fil    3419   1.03  19.4   52  1.5  0.34  0.00  0.00  0.00     5
  4 APR  106 End Gr Fil    4397   0.24  19.4   52  1.2  0.70  0.00  0.00  0.00     6
  7 APR  109 Maturity      4397   0.24  19.4   52  1.2  0.00  0.00  0.00  0.00    10
  7 APR  109 Harvest       4397   0.24  19.4   52  1.2  0.00  0.00  0.00  0.00    10


*MAIN GROWTH AND DEVELOPMENT VARIABLES

@     VARIABLE                                         SIMULATED     MEASURED
      --------                                         ---------     --------
      Anthesis day (dap)                                      53          -99
      Physiological maturity day (dap)                       109          -99
      Yield at harvest maturity (kg [dm]/ha)                1634          -99
      Number at maturity (no/m2)                            1558          -99
      Unit wt at maturity (g [dm]/unit)                   0.1048          -99
      Number at maturity (no/unit)                         251.3          -99
      Tops weight at maturity (kg [dm]/ha)                  4397          -99
      By-product produced (stalk) at maturity (kg[dm]/ha    2794          -99
      Leaf area index, maximum                              1.43          -99
      Harvest index at maturity                            0.372          -99
      Grain N at maturity (kg/ha)                             30          -99
      Tops N at maturity (kg/ha)                              52          -99
      Stem N at maturity (kg/ha)                              22          -99
      Grain N at maturity (%)                                1.8          -99
      Tops weight at anthesis (kg [dm]/ha)                  2314          -99
      Tops N at anthesis (kg/ha)                              52          -99
      Leaf number per stem at maturity                     19.44          -99
      Emergence day (dap)                                      6          -99


*ENVIRONMENTAL AND STRESS FACTORS

 |-----Development Phase------|--------------------------------------Environment--------------------------------------|-----------------Stress-----------------|
                              |---------------Average--------------|-----Cumulative-----|--------Count of days--------|          (0=Min, 1=Max Stress)         |
                         Time  Temp  Temp  Temp Solar Photop                Evapo    Pot TMIN TMIN TMAX TMAX TMAX RAIN|----Water----|---Nitrogen--|-Phosphorus-|
                         Span   Max   Min  Mean   Rad  [day]    CO2   Rain  Trans     ET   <    <    >    >    >    >   Photo         Photo         Photo
                         days    邂    邂    邂 MJ/m2     hr    ppm     mm     mm     mm  0邂  2邂 30邂 32邂 34邂  0mm  synth Growth  synth Growth  synth Growth
----------------------------------------------------------------------------------------------------------------------------------------------------------------
 Emergence-End Juvenile    12  33.5  18.2  25.9  18.0   0.00  364.9    9.0   10.6   61.0    0    0   12   10    3    1  0.040  0.165  0.002  0.004  0.000  0.000
 End Juvenil-Floral Init    4  31.3  19.2  25.2  14.7   0.00  364.9    0.0    4.7   16.0    0    0    3    2    0    0  0.006  0.097  0.001  0.003  0.000  0.000
 Floral Init-End Lf Grow   31  33.6  19.1  26.3  18.6   0.00  365.1   27.0   64.0  151.6    0    0   30   27    8    4  0.363  0.522  0.000  0.000  0.000  0.000
 End Lf Grth-Beg Grn Fil   10  31.4  19.0  25.2  16.0   0.00  365.3   29.0   29.3   41.2    0    0    5    4    1    4  0.203  0.328  0.000  0.000  0.000  0.000
 Grain Filling Phase       43  32.3  19.1  25.7  17.2   8.07  365.6   82.1   54.6  199.0    0    0   36   26    4   14  0.678  0.722  0.000  0.000  0.000  0.000


 Planting to Harvest      109  32.6  18.9  25.8  17.5   3.65  365.3  155.6  176.1  513.3    0    0   94   74   16   25  0.394  0.485  0.000  0.001  0.000  0.000
----------------------------------------------------------------------------------------------------------------------------------------------------------------


*Resource Productivity
 Growing season length: 109 days 

 Precipitation during growing season       155.6 mm[rain]
   Dry Matter Productivity                  2.83 kg[DM]/m3[rain]          =   28.3 kg[DM]/ha per mm[rain]
   Yield Productivity                       1.05 kg[grain yield]/m3[rain] =   10.5 kg[yield]/ha per mm[rain]

 Evapotranspiration during growing season  176.1 mm[ET]
   Dry Matter Productivity                  2.50 kg[DM]/m3[ET]            =   25.0 kg[DM]/ha per mm[ET]
   Yield Productivity                       0.93 kg[grain yield]/m3[ET]   =    9.3 kg[yield]/ha per mm[ET]

 Transpiration during growing season        84.0 mm[EP]
   Dry Matter Productivity                  5.24 kg[DM]/m3[EP]            =   52.4 kg[DM]/ha per mm[EP]
   Yield Productivity                       1.95 kg[grain yield]/m3[EP]   =   19.5 kg[yield]/ha per mm[EP]

 N applied during growing season            161. kg[N applied]/ha
   Dry Matter Productivity                  27.3 kg[DM]/kg[N applied]
   Yield Productivity                       10.1 kg[yield]/kg[N applied]

 N uptake during growing season               58 kg[N uptake]/ha
   Dry Matter Productivity                  75.8 kg[DM]/kg[N uptake]
   Yield Productivity                       28.2 kg[yield]/kg[N uptake]

--------------------------------------------------------------------------------------------------------------

                     Maize YIELD :     1634 kg/ha    [Dry weight] 

**************************************************************************************************************
