*SIMULATION OVERVIEW FILE

*DSSAT Cropping System Model Ver. 4.6.1.000 -release      OCT 02, 2017; 13:27:45
                                                                                
*RUN   1        : P04/02                    MZCER046 ANBU1997    1              
 MODEL          : MZCER046 - Maize                                              
 EXPERIMENT     : ANBU1997 MZ  Analisis a침os de bajo rendimiento Buga          
 DATA PATH      : C:\DSSAT46\maize\                                             
 TREATMENT  1   : P04/02                    MZCER046                            
                                                                                
                                                                                
 CROP           : Maize            CULTIVAR : P30F35           ECOTYPE :IB0001  
 STARTING DATE  : MAR  3 1997                                                   
 PLANTING DATE  : APR  2 1997        PLANTS/m2 :  6.2     ROW SPACING :  80.cm  
 WEATHER        : CUNI   1997                                                   
 SOIL           : CCBUGA2017     TEXTURE : CL    -   Suelo Buga MADR Fase I     
 SOIL INITIAL C : DEPTH: 90cm EXTR. H2O: 83.9mm  NO3:151.4kg/ha  NH4: 62.4kg/ha 
 WATER BALANCE  : RAINFED                                                       
 IRRIGATION     : NOT IRRIGATED                                                 
 NITROGEN BAL.  : SOIL-N & N-UPTAKE SIMULATION; NO N-FIXATION                   
 N-FERTILIZER   :      161 kg/ha IN     5 APPLICATIONS                          
 RESIDUE/MANURE : INITIAL :     0 kg/ha ;       0 kg/ha IN     0 APPLICATIONS   
 ENVIRONM. OPT. : DAYL=    0.00  SRAD=    0.00  TMAX=    0.00  TMIN=    0.00    
                  RAIN=    0.00  CO2 =    0.00  DEW =    0.00  WIND=    0.00    
 SIMULATION OPT : WATER   :Y  NITROGEN:Y  N-FIX:N  PHOSPH :N  PESTS  :N         
                  PHOTO   :C  ET      :R  INFIL:S  HYDROL :R  SOM    :G         
                  CO2 363ppm  NSWIT   :1  EVAP :S  SOIL   :2  STEMP  :D         
 MANAGEMENT OPT : PLANTING:R  IRRIG   :N  FERT :D  RESIDUE:R  HARVEST:M         
                  WEATHER :M  TILLAGE :N                                        
                                                                                
*SUMMARY OF SOIL AND GENETIC INPUT PARAMETERS                                   
                                                                                
   SOIL LOWER UPPER   SAT  EXTR  INIT   ROOT   BULK     pH    NO3    NH4    ORG 
  DEPTH LIMIT LIMIT    SW    SW    SW   DIST   DENS                          C  
   cm   cm3/cm3    cm3/cm3    cm3/cm3         g/cm3         ugN/g  ugN/g     %  
------------------------------------------------------------------------------- 
  0-  5 0.215 0.331 0.341 0.116 0.319   1.00   1.68   6.70  11.90   4.21   0.75 
  5- 15 0.215 0.331 0.341 0.116 0.319   1.00   1.68   6.70  11.90   4.21   0.75 
 15- 25 0.215 0.331 0.341 0.116 0.319   1.00   1.68   6.70  11.90   4.21   0.75 
 25- 35 0.181 0.291 0.364 0.110 0.331   0.50   1.61   7.20  12.15   4.32   0.53 
 35- 45 0.181 0.291 0.364 0.110 0.344   0.50   1.61   7.20  12.40   4.44   0.53 
 45- 67 0.096 0.169 0.404 0.073 0.290   0.27   1.51   7.00  10.67   4.47   0.05 
 67- 90 0.096 0.169 0.404 0.073 0.195   0.27   1.51   7.00   7.63   4.53   0.05 
                                                                                
TOT- 90  13.3  21.7  34.0   8.4  25.6  <--cm   -  kg/ha-->  151.4   62.4  51964 
SOIL ALBEDO    : 0.09      EVAPORATION LIMIT : 6.00         MIN. FACTOR  : 1.00 
RUNOFF CURVE # :76.00      DRAINAGE RATE     : 0.60         FERT. FACTOR : 1.00 
                                                                                
 Maize      CULTIVAR :CI0001-P30F35             ECOTYPE :IB0001                 
 P1     : 212.00  P2     : 0.3000  P5     : 925.00                              
 G2     : 954.00  G3     :  7.000  PHINT  : 50.000                              


*SIMULATED CROP AND SOIL STATUS AT MAIN DEVELOPMENT STAGES

 RUN NO.     1     P04/02                  

        CROP GROWTH     BIOMASS         LEAF   CROP N     STRESS      STRESS                                           
   DATE  AGE STAGE        kg/ha    LAI   NUM  kg/ha  %   H2O  Nitr Phos1 Phos2  RSTG                                   
 ------  --- ----------   -----  -----  ----  ---  ---  ----  ----  ----  ----  ----                                   
  3 MAR    0 Start Sim        0   0.00   0.0    0  0.0  0.00  0.00  0.00  0.00     7
  2 APR    0 Sowing           0   0.00   0.0    0  0.0  0.00  0.00  0.00  0.00     8
  3 APR    1 Germinate        0   0.00   0.0    0  0.0  0.00  0.00  0.00  0.00     9
  8 APR    6 Emergence       25   0.00   2.0    1  4.4  0.00  0.01  0.00  0.00     1
 19 APR   17 End Juveni      67   0.15   6.7    2  3.4  0.00  0.00  0.00  0.00     2
 25 APR   23 Floral Ini     135   0.28   8.6    5  3.6  0.00  0.00  0.00  0.00     3
 30 MAY   58 75% Silkin    4996   2.69  18.1  101  2.0  0.00  0.00  0.00  0.00     4
 10 JUN   69 Beg Gr Fil    6823   2.54  18.1  101  1.5  0.00  0.00  0.00  0.00     5
 23 JUL  112 End Gr Fil   11960   1.10  18.1  146  1.2  0.33  0.00  0.00  0.00     6
 25 JUL  114 Maturity     11960   1.10  18.1  146  1.2  0.96  0.00  0.00  0.00    10
 25 JUL  114 Harvest      11960   1.10  18.1  146  1.2  0.00  0.00  0.00  0.00    10


*MAIN GROWTH AND DEVELOPMENT VARIABLES

@     VARIABLE                                         SIMULATED     MEASURED
      --------                                         ---------     --------
      Anthesis day (dap)                                      58          -99
      Physiological maturity day (dap)                       114          -99
      Yield at harvest maturity (kg [dm]/ha)                5779          -99
      Number at maturity (no/m2)                            2246          -99
      Unit wt at maturity (g [dm]/unit)                   0.2573          -99
      Number at maturity (no/unit)                         362.2          -99
      Tops weight at maturity (kg [dm]/ha)                 11960          -99
      By-product produced (stalk) at maturity (kg[dm]/ha    6224          -99
      Leaf area index, maximum                              2.82          -99
      Harvest index at maturity                            0.483          -99
      Grain N at maturity (kg/ha)                            101          -99
      Tops N at maturity (kg/ha)                             146          -99
      Stem N at maturity (kg/ha)                              45          -99
      Grain N at maturity (%)                                1.7          -99
      Tops weight at anthesis (kg [dm]/ha)                  4855          -99
      Tops N at anthesis (kg/ha)                             101          -99
      Leaf number per stem at maturity                     18.09          -99
      Emergence day (dap)                                      6          -99


*ENVIRONMENTAL AND STRESS FACTORS

 |-----Development Phase------|--------------------------------------Environment--------------------------------------|-----------------Stress-----------------|
                              |---------------Average--------------|-----Cumulative-----|--------Count of days--------|          (0=Min, 1=Max Stress)         |
                         Time  Temp  Temp  Temp Solar Photop                Evapo    Pot TMIN TMIN TMAX TMAX TMAX RAIN|----Water----|---Nitrogen--|-Phosphorus-|
                         Span   Max   Min  Mean   Rad  [day]    CO2   Rain  Trans     ET   <    <    >    >    >    >   Photo         Photo         Photo
                         days    邂    邂    邂 MJ/m2     hr    ppm     mm     mm     mm  0邂  2邂 30邂 32邂 34邂  0mm  synth Growth  synth Growth  synth Growth
----------------------------------------------------------------------------------------------------------------------------------------------------------------
 Emergence-End Juvenile    11  31.4  19.7  25.5  15.5  21.65  363.4   45.0   25.6   48.3    0    0    9    4    0    4  0.000  0.000  0.002  0.004  0.000  0.000
 End Juvenil-Floral Init    6  28.8  19.6  24.2  13.8  24.00  363.4   34.0   20.3   22.6    0    0    2    1    0    4  0.000  0.000  0.000  0.001  0.000  0.000
 Floral Init-End Lf Grow   35  30.4  18.8  24.6  15.4  24.00  363.5  117.0  119.1  135.8    0    0   21    7    0   12  0.000  0.000  0.000  0.000  0.000  0.000
 End Lf Grth-Beg Grn Fil   11  28.0  18.8  23.4  12.6  24.00  363.5  117.0   32.4   32.4    0    0    2    0    0    6  0.000  0.000  0.000  0.000  0.000  0.000
 Grain Filling Phase       43  31.3  18.2  24.8  17.0  24.00  363.7   38.0  126.5  179.2    0    0   31   10    4    8  0.262  0.311  0.000  0.000  0.000  0.000


 Planting to Harvest      114  30.7  18.8  24.7  15.9  23.39  363.5  360.0  331.4  460.1    0    0   71   28    6   35  0.115  0.134  0.000  0.000  0.000  0.000
----------------------------------------------------------------------------------------------------------------------------------------------------------------


*Resource Productivity
 Growing season length: 114 days 

 Precipitation during growing season       360.0 mm[rain]
   Dry Matter Productivity                  3.32 kg[DM]/m3[rain]          =   33.2 kg[DM]/ha per mm[rain]
   Yield Productivity                       1.61 kg[grain yield]/m3[rain] =   16.1 kg[yield]/ha per mm[rain]

 Evapotranspiration during growing season  331.4 mm[ET]
   Dry Matter Productivity                  3.61 kg[DM]/m3[ET]            =   36.1 kg[DM]/ha per mm[ET]
   Yield Productivity                       1.74 kg[grain yield]/m3[ET]   =   17.4 kg[yield]/ha per mm[ET]

 Transpiration during growing season       207.0 mm[EP]
   Dry Matter Productivity                  5.78 kg[DM]/m3[EP]            =   57.8 kg[DM]/ha per mm[EP]
   Yield Productivity                       2.79 kg[grain yield]/m3[EP]   =   27.9 kg[yield]/ha per mm[EP]

 N applied during growing season            161. kg[N applied]/ha
   Dry Matter Productivity                  74.3 kg[DM]/kg[N applied]
   Yield Productivity                       35.9 kg[yield]/kg[N applied]

 N uptake during growing season              162 kg[N uptake]/ha
   Dry Matter Productivity                  73.8 kg[DM]/kg[N uptake]
   Yield Productivity                       35.7 kg[yield]/kg[N uptake]

--------------------------------------------------------------------------------------------------------------

                     Maize YIELD :     5779 kg/ha    [Dry weight] 

**************************************************************************************************************

*DSSAT Cropping System Model Ver. 4.6.1.000 -release      OCT 02, 2017; 13:27:45
                                                                                
*RUN   2        : P04/07                    MZCER046 ANBU1997    2              
 MODEL          : MZCER046 - Maize                                              
 EXPERIMENT     : ANBU1997 MZ  Analisis a침os de bajo rendimiento Buga          
 DATA PATH      : C:\DSSAT46\maize\                                             
 TREATMENT  2   : P04/07                    MZCER046                            
                                                                                
                                                                                
 CROP           : Maize            CULTIVAR : P30F35           ECOTYPE :IB0001  
 STARTING DATE  : MAR  8 1997                                                   
 PLANTING DATE  : APR  7 1997        PLANTS/m2 :  6.2     ROW SPACING :  80.cm  
 WEATHER        : CUNI   1997                                                   
 SOIL           : CCBUGA2017     TEXTURE : CL    -   Suelo Buga MADR Fase I     
 SOIL INITIAL C : DEPTH: 90cm EXTR. H2O: 83.9mm  NO3:151.4kg/ha  NH4: 62.4kg/ha 
 WATER BALANCE  : RAINFED                                                       
 IRRIGATION     : NOT IRRIGATED                                                 
 NITROGEN BAL.  : SOIL-N & N-UPTAKE SIMULATION; NO N-FIXATION                   
 N-FERTILIZER   :      161 kg/ha IN     5 APPLICATIONS                          
 RESIDUE/MANURE : INITIAL :     0 kg/ha ;       0 kg/ha IN     0 APPLICATIONS   
 ENVIRONM. OPT. : DAYL=    0.00  SRAD=    0.00  TMAX=    0.00  TMIN=    0.00    
                  RAIN=    0.00  CO2 =    0.00  DEW =    0.00  WIND=    0.00    
 SIMULATION OPT : WATER   :Y  NITROGEN:Y  N-FIX:N  PHOSPH :N  PESTS  :N         
                  PHOTO   :C  ET      :R  INFIL:S  HYDROL :R  SOM    :G         
                  CO2 363ppm  NSWIT   :1  EVAP :S  SOIL   :2  STEMP  :D         
 MANAGEMENT OPT : PLANTING:R  IRRIG   :N  FERT :D  RESIDUE:R  HARVEST:M         
                  WEATHER :M  TILLAGE :N                                        
                                                                                
*SUMMARY OF SOIL AND GENETIC INPUT PARAMETERS                                   
                                                                                
   SOIL LOWER UPPER   SAT  EXTR  INIT   ROOT   BULK     pH    NO3    NH4    ORG 
  DEPTH LIMIT LIMIT    SW    SW    SW   DIST   DENS                          C  
   cm   cm3/cm3    cm3/cm3    cm3/cm3         g/cm3         ugN/g  ugN/g     %  
------------------------------------------------------------------------------- 
  0-  5 0.215 0.331 0.341 0.116 0.319   1.00   1.68   6.70  11.90   4.21   0.75 
  5- 15 0.215 0.331 0.341 0.116 0.319   1.00   1.68   6.70  11.90   4.21   0.75 
 15- 25 0.215 0.331 0.341 0.116 0.319   1.00   1.68   6.70  11.90   4.21   0.75 
 25- 35 0.181 0.291 0.364 0.110 0.331   0.50   1.61   7.20  12.15   4.32   0.53 
 35- 45 0.181 0.291 0.364 0.110 0.344   0.50   1.61   7.20  12.40   4.44   0.53 
 45- 67 0.096 0.169 0.404 0.073 0.290   0.27   1.51   7.00  10.67   4.47   0.05 
 67- 90 0.096 0.169 0.404 0.073 0.195   0.27   1.51   7.00   7.63   4.53   0.05 
                                                                                
TOT- 90  13.3  21.7  34.0   8.4  25.6  <--cm   -  kg/ha-->  151.4   62.4  51964 
SOIL ALBEDO    : 0.09      EVAPORATION LIMIT : 6.00         MIN. FACTOR  : 1.00 
RUNOFF CURVE # :76.00      DRAINAGE RATE     : 0.60         FERT. FACTOR : 1.00 
                                                                                
 Maize      CULTIVAR :CI0001-P30F35             ECOTYPE :IB0001                 
 P1     : 212.00  P2     : 0.3000  P5     : 925.00                              
 G2     : 954.00  G3     :  7.000  PHINT  : 50.000                              


*SIMULATED CROP AND SOIL STATUS AT MAIN DEVELOPMENT STAGES

 RUN NO.     2     P04/07                  

        CROP GROWTH     BIOMASS         LEAF   CROP N     STRESS      STRESS                                           
   DATE  AGE STAGE        kg/ha    LAI   NUM  kg/ha  %   H2O  Nitr Phos1 Phos2  RSTG                                   
 ------  --- ----------   -----  -----  ----  ---  ---  ----  ----  ----  ----  ----                                   
  8 MAR    0 Start Sim        0   0.00   0.0    0  0.0  0.00  0.00  0.00  0.00     7
  7 APR    0 Sowing           0   0.00   0.0    0  0.0  0.00  0.00  0.00  0.00     8
  8 APR    1 Germinate        0   0.00   0.0    0  0.0  0.00  0.00  0.00  0.00     9
 13 APR    6 Emergence       25   0.00   2.0    1  4.4  0.00  0.01  0.00  0.00     1
 25 APR   18 End Juveni      50   0.11   6.8    2  3.5  0.00  0.00  0.00  0.00     2
  2 MAY   25 Floral Ini     203   0.39   9.3    7  3.6  0.00  0.00  0.00  0.00     3
  9 JUN   63 75% Silkin    5572   3.05  19.6  112  2.0  0.00  0.00  0.00  0.00     4
 20 JUN   74 Beg Gr Fil    7723   2.88  19.6  115  1.5  0.00  0.00  0.00  0.00     5
  1 AUG  116 End Gr Fil   12463   1.12  19.6  152  1.2  0.46  0.00  0.00  0.00     6
  3 AUG  118 Maturity     12463   1.12  19.6  152  1.2  0.00  0.00  0.00  0.00    10
  3 AUG  118 Harvest      12463   1.12  19.6  152  1.2  0.00  0.00  0.00  0.00    10


*MAIN GROWTH AND DEVELOPMENT VARIABLES

@     VARIABLE                                         SIMULATED     MEASURED
      --------                                         ---------     --------
      Anthesis day (dap)                                      63          -99
      Physiological maturity day (dap)                       118          -99
      Yield at harvest maturity (kg [dm]/ha)                6023          -99
      Number at maturity (no/m2)                            2651          -99
      Unit wt at maturity (g [dm]/unit)                   0.2272          -99
      Number at maturity (no/unit)                         427.6          -99
      Tops weight at maturity (kg [dm]/ha)                 12463          -99
      By-product produced (stalk) at maturity (kg[dm]/ha    6491          -99
      Leaf area index, maximum                              3.20          -99
      Harvest index at maturity                            0.483          -99
      Grain N at maturity (kg/ha)                            107          -99
      Tops N at maturity (kg/ha)                             152          -99
      Stem N at maturity (kg/ha)                              45          -99
      Grain N at maturity (%)                                1.8          -99
      Tops weight at anthesis (kg [dm]/ha)                  5325          -99
      Tops N at anthesis (kg/ha)                             110          -99
      Leaf number per stem at maturity                     19.62          -99
      Emergence day (dap)                                      6          -99


*ENVIRONMENTAL AND STRESS FACTORS

 |-----Development Phase------|--------------------------------------Environment--------------------------------------|-----------------Stress-----------------|
                              |---------------Average--------------|-----Cumulative-----|--------Count of days--------|          (0=Min, 1=Max Stress)         |
                         Time  Temp  Temp  Temp Solar Photop                Evapo    Pot TMIN TMIN TMAX TMAX TMAX RAIN|----Water----|---Nitrogen--|-Phosphorus-|
                         Span   Max   Min  Mean   Rad  [day]    CO2   Rain  Trans     ET   <    <    >    >    >    >   Photo         Photo         Photo
                         days    邂    邂    邂 MJ/m2     hr    ppm     mm     mm     mm  0邂  2邂 30邂 32邂 34邂  0mm  synth Growth  synth Growth  synth Growth
----------------------------------------------------------------------------------------------------------------------------------------------------------------
 Emergence-End Juvenile    12  30.2  19.8  25.0  14.9  23.74  363.4   72.0   39.2   50.2    0    0    8    3    0    6  0.000  0.000  0.002  0.004  0.000  0.000
 End Juvenil-Floral Init    7  30.3  18.7  24.5  16.9  24.00  363.4   33.0   22.7   32.3    0    0    3    2    0    2  0.000  0.000  0.001  0.002  0.000  0.000
 Floral Init-End Lf Grow   38  29.8  18.9  24.3  14.3  24.00  363.5  198.0  119.3  134.5    0    0   20    5    0   15  0.000  0.000  0.000  0.000  0.000  0.000
 End Lf Grth-Beg Grn Fil   11  29.6  18.6  24.1  14.5  24.00  363.6   13.0   37.5   37.6    0    0    3    0    0    3  0.000  0.000  0.000  0.000  0.000  0.000
 Grain Filling Phase       42  32.1  18.0  25.0  17.7  24.00  363.7   78.0  109.7  183.4    0    0   37   15    7    9  0.411  0.463  0.000  0.000  0.000  0.000


 Planting to Harvest      118  30.7  18.7  24.7  15.9  23.73  363.6  401.0  343.1  473.5    0    0   76   28    7   37  0.146  0.165  0.000  0.001  0.000  0.000
----------------------------------------------------------------------------------------------------------------------------------------------------------------


*Resource Productivity
 Growing season length: 118 days 

 Precipitation during growing season       401.0 mm[rain]
   Dry Matter Productivity                  3.11 kg[DM]/m3[rain]          =   31.1 kg[DM]/ha per mm[rain]
   Yield Productivity                       1.50 kg[grain yield]/m3[rain] =   15.0 kg[yield]/ha per mm[rain]

 Evapotranspiration during growing season  343.1 mm[ET]
   Dry Matter Productivity                  3.63 kg[DM]/m3[ET]            =   36.3 kg[DM]/ha per mm[ET]
   Yield Productivity                       1.76 kg[grain yield]/m3[ET]   =   17.6 kg[yield]/ha per mm[ET]

 Transpiration during growing season       213.3 mm[EP]
   Dry Matter Productivity                  5.84 kg[DM]/m3[EP]            =   58.4 kg[DM]/ha per mm[EP]
   Yield Productivity                       2.82 kg[grain yield]/m3[EP]   =   28.2 kg[yield]/ha per mm[EP]

 N applied during growing season            161. kg[N applied]/ha
   Dry Matter Productivity                  77.4 kg[DM]/kg[N applied]
   Yield Productivity                       37.4 kg[yield]/kg[N applied]

 N uptake during growing season              167 kg[N uptake]/ha
   Dry Matter Productivity                  74.6 kg[DM]/kg[N uptake]
   Yield Productivity                       36.1 kg[yield]/kg[N uptake]

--------------------------------------------------------------------------------------------------------------

                     Maize YIELD :     6023 kg/ha    [Dry weight] 

**************************************************************************************************************

*DSSAT Cropping System Model Ver. 4.6.1.000 -release      OCT 02, 2017; 13:27:45
                                                                                
*RUN   3        : P04/12                    MZCER046 ANBU1997    3              
 MODEL          : MZCER046 - Maize                                              
 EXPERIMENT     : ANBU1997 MZ  Analisis a침os de bajo rendimiento Buga          
 DATA PATH      : C:\DSSAT46\maize\                                             
 TREATMENT  3   : P04/12                    MZCER046                            
                                                                                
                                                                                
 CROP           : Maize            CULTIVAR : P30F35           ECOTYPE :IB0001  
 STARTING DATE  : MAR 13 1997                                                   
 PLANTING DATE  : APR 12 1997        PLANTS/m2 :  6.2     ROW SPACING :  80.cm  
 WEATHER        : CUNI   1997                                                   
 SOIL           : CCBUGA2017     TEXTURE : CL    -   Suelo Buga MADR Fase I     
 SOIL INITIAL C : DEPTH: 90cm EXTR. H2O: 83.9mm  NO3:151.4kg/ha  NH4: 62.4kg/ha 
 WATER BALANCE  : RAINFED                                                       
 IRRIGATION     : NOT IRRIGATED                                                 
 NITROGEN BAL.  : SOIL-N & N-UPTAKE SIMULATION; NO N-FIXATION                   
 N-FERTILIZER   :      161 kg/ha IN     5 APPLICATIONS                          
 RESIDUE/MANURE : INITIAL :     0 kg/ha ;       0 kg/ha IN     0 APPLICATIONS   
 ENVIRONM. OPT. : DAYL=    0.00  SRAD=    0.00  TMAX=    0.00  TMIN=    0.00    
                  RAIN=    0.00  CO2 =    0.00  DEW =    0.00  WIND=    0.00    
 SIMULATION OPT : WATER   :Y  NITROGEN:Y  N-FIX:N  PHOSPH :N  PESTS  :N         
                  PHOTO   :C  ET      :R  INFIL:S  HYDROL :R  SOM    :G         
                  CO2 363ppm  NSWIT   :1  EVAP :S  SOIL   :2  STEMP  :D         
 MANAGEMENT OPT : PLANTING:R  IRRIG   :N  FERT :D  RESIDUE:R  HARVEST:M         
                  WEATHER :M  TILLAGE :N                                        
                                                                                
*SUMMARY OF SOIL AND GENETIC INPUT PARAMETERS                                   
                                                                                
   SOIL LOWER UPPER   SAT  EXTR  INIT   ROOT   BULK     pH    NO3    NH4    ORG 
  DEPTH LIMIT LIMIT    SW    SW    SW   DIST   DENS                          C  
   cm   cm3/cm3    cm3/cm3    cm3/cm3         g/cm3         ugN/g  ugN/g     %  
------------------------------------------------------------------------------- 
  0-  5 0.215 0.331 0.341 0.116 0.319   1.00   1.68   6.70  11.90   4.21   0.75 
  5- 15 0.215 0.331 0.341 0.116 0.319   1.00   1.68   6.70  11.90   4.21   0.75 
 15- 25 0.215 0.331 0.341 0.116 0.319   1.00   1.68   6.70  11.90   4.21   0.75 
 25- 35 0.181 0.291 0.364 0.110 0.331   0.50   1.61   7.20  12.15   4.32   0.53 
 35- 45 0.181 0.291 0.364 0.110 0.344   0.50   1.61   7.20  12.40   4.44   0.53 
 45- 67 0.096 0.169 0.404 0.073 0.290   0.27   1.51   7.00  10.67   4.47   0.05 
 67- 90 0.096 0.169 0.404 0.073 0.195   0.27   1.51   7.00   7.63   4.53   0.05 
                                                                                
TOT- 90  13.3  21.7  34.0   8.4  25.6  <--cm   -  kg/ha-->  151.4   62.4  51964 
SOIL ALBEDO    : 0.09      EVAPORATION LIMIT : 6.00         MIN. FACTOR  : 1.00 
RUNOFF CURVE # :76.00      DRAINAGE RATE     : 0.60         FERT. FACTOR : 1.00 
                                                                                
 Maize      CULTIVAR :CI0001-P30F35             ECOTYPE :IB0001                 
 P1     : 212.00  P2     : 0.3000  P5     : 925.00                              
 G2     : 954.00  G3     :  7.000  PHINT  : 50.000                              


*SIMULATED CROP AND SOIL STATUS AT MAIN DEVELOPMENT STAGES

 RUN NO.     3     P04/12                  

        CROP GROWTH     BIOMASS         LEAF   CROP N     STRESS      STRESS                                           
   DATE  AGE STAGE        kg/ha    LAI   NUM  kg/ha  %   H2O  Nitr Phos1 Phos2  RSTG                                   
 ------  --- ----------   -----  -----  ----  ---  ---  ----  ----  ----  ----  ----                                   
 13 MAR    0 Start Sim        0   0.00   0.0    0  0.0  0.00  0.00  0.00  0.00     7
 12 APR    0 Sowing           0   0.00   0.0    0  0.0  0.00  0.00  0.00  0.00     8
 13 APR    1 Germinate        0   0.00   0.0    0  0.0  0.00  0.00  0.00  0.00     9
 18 APR    6 Emergence       25   0.00   2.0    1  4.4  0.00  0.01  0.00  0.00     1
 30 APR   18 End Juveni      60   0.13   6.7    2  3.1  0.00  0.00  0.00  0.00     2
  7 MAY   25 Floral Ini     238   0.45   9.2    9  3.6  0.00  0.00  0.00  0.00     3
 15 JUN   64 75% Silkin    5487   3.04  19.4  106  1.9  0.00  0.00  0.00  0.00     4
 25 JUN   74 Beg Gr Fil    7464   2.88  19.4  106  1.4  0.00  0.00  0.00  0.00     5
  5 AUG  115 End Gr Fil   12066   1.16  19.4  144  1.2  0.48  0.00  0.00  0.00     6
  8 AUG  118 Maturity     12066   1.16  19.4  144  1.2  0.65  0.00  0.00  0.00    10
  8 AUG  118 Harvest      12066   1.16  19.4  144  1.2  0.00  0.00  0.00  0.00    10


*MAIN GROWTH AND DEVELOPMENT VARIABLES

@     VARIABLE                                         SIMULATED     MEASURED
      --------                                         ---------     --------
      Anthesis day (dap)                                      64          -99
      Physiological maturity day (dap)                       118          -99
      Yield at harvest maturity (kg [dm]/ha)                5867          -99
      Number at maturity (no/m2)                            2699          -99
      Unit wt at maturity (g [dm]/unit)                   0.2174          -99
      Number at maturity (no/unit)                         435.4          -99
      Tops weight at maturity (kg [dm]/ha)                 12066          -99
      By-product produced (stalk) at maturity (kg[dm]/ha    6250          -99
      Leaf area index, maximum                              3.20          -99
      Harvest index at maturity                            0.486          -99
      Grain N at maturity (kg/ha)                            104          -99
      Tops N at maturity (kg/ha)                             144          -99
      Stem N at maturity (kg/ha)                              40          -99
      Grain N at maturity (%)                                1.8          -99
      Tops weight at anthesis (kg [dm]/ha)                  5225          -99
      Tops N at anthesis (kg/ha)                             103          -99
      Leaf number per stem at maturity                     19.38          -99
      Emergence day (dap)                                      6          -99


*ENVIRONMENTAL AND STRESS FACTORS

 |-----Development Phase------|--------------------------------------Environment--------------------------------------|-----------------Stress-----------------|
                              |---------------Average--------------|-----Cumulative-----|--------Count of days--------|          (0=Min, 1=Max Stress)         |
                         Time  Temp  Temp  Temp Solar Photop                Evapo    Pot TMIN TMIN TMAX TMAX TMAX RAIN|----Water----|---Nitrogen--|-Phosphorus-|
                         Span   Max   Min  Mean   Rad  [day]    CO2   Rain  Trans     ET   <    <    >    >    >    >   Photo         Photo         Photo
                         days    邂    邂    邂 MJ/m2     hr    ppm     mm     mm     mm  0邂  2邂 30邂 32邂 34邂  0mm  synth Growth  synth Growth  synth Growth
----------------------------------------------------------------------------------------------------------------------------------------------------------------
 Emergence-End Juvenile    12  29.3  19.2  24.3  14.7  24.00  363.4   71.0   40.3   49.0    0    0    4    2    0    7  0.000  0.000  0.001  0.004  0.000  0.000
 End Juvenil-Floral Init    7  31.6  18.4  25.0  16.3  24.00  363.4    2.0   10.6   31.3    0    0    6    3    0    1  0.000  0.000  0.001  0.002  0.000  0.000
 Floral Init-End Lf Grow   39  29.5  18.9  24.2  14.3  24.00  363.5  201.0  126.8  137.1    0    0   17    3    0   16  0.000  0.000  0.000  0.000  0.000  0.000
 End Lf Grth-Beg Grn Fil   10  30.3  18.6  24.4  14.8  24.00  363.7   12.0   35.1   35.2    0    0    5    0    0    2  0.000  0.000  0.000  0.000  0.000  0.000
 Grain Filling Phase       41  32.3  18.0  25.2  18.0  24.00  363.7   74.0  105.6  182.9    0    0   38   18    7    8  0.420  0.472  0.000  0.000  0.000  0.000


 Planting to Harvest      118  30.9  18.6  24.8  16.1  23.95  363.6  394.0  346.8  482.5    0    0   79   32    9   35  0.153  0.177  0.000  0.000  0.000  0.000
----------------------------------------------------------------------------------------------------------------------------------------------------------------


*Resource Productivity
 Growing season length: 118 days 

 Precipitation during growing season       394.0 mm[rain]
   Dry Matter Productivity                  3.06 kg[DM]/m3[rain]          =   30.6 kg[DM]/ha per mm[rain]
   Yield Productivity                       1.49 kg[grain yield]/m3[rain] =   14.9 kg[yield]/ha per mm[rain]

 Evapotranspiration during growing season  346.8 mm[ET]
   Dry Matter Productivity                  3.48 kg[DM]/m3[ET]            =   34.8 kg[DM]/ha per mm[ET]
   Yield Productivity                       1.69 kg[grain yield]/m3[ET]   =   16.9 kg[yield]/ha per mm[ET]

 Transpiration during growing season       208.9 mm[EP]
   Dry Matter Productivity                  5.78 kg[DM]/m3[EP]            =   57.8 kg[DM]/ha per mm[EP]
   Yield Productivity                       2.81 kg[grain yield]/m3[EP]   =   28.1 kg[yield]/ha per mm[EP]

 N applied during growing season            161. kg[N applied]/ha
   Dry Matter Productivity                  74.9 kg[DM]/kg[N applied]
   Yield Productivity                       36.4 kg[yield]/kg[N applied]

 N uptake during growing season              160 kg[N uptake]/ha
   Dry Matter Productivity                  75.4 kg[DM]/kg[N uptake]
   Yield Productivity                       36.7 kg[yield]/kg[N uptake]

--------------------------------------------------------------------------------------------------------------

                     Maize YIELD :     5867 kg/ha    [Dry weight] 

**************************************************************************************************************

*DSSAT Cropping System Model Ver. 4.6.1.000 -release      OCT 02, 2017; 13:27:46
                                                                                
*RUN   4        : P04/17                    MZCER046 ANBU1997    4              
 MODEL          : MZCER046 - Maize                                              
 EXPERIMENT     : ANBU1997 MZ  Analisis a침os de bajo rendimiento Buga          
 DATA PATH      : C:\DSSAT46\maize\                                             
 TREATMENT  4   : P04/17                    MZCER046                            
                                                                                
                                                                                
 CROP           : Maize            CULTIVAR : P30F35           ECOTYPE :IB0001  
 STARTING DATE  : MAR 18 1997                                                   
 PLANTING DATE  : APR 17 1997        PLANTS/m2 :  6.2     ROW SPACING :  80.cm  
 WEATHER        : CUNI   1997                                                   
 SOIL           : CCBUGA2017     TEXTURE : CL    -   Suelo Buga MADR Fase I     
 SOIL INITIAL C : DEPTH: 90cm EXTR. H2O: 83.9mm  NO3:151.4kg/ha  NH4: 62.4kg/ha 
 WATER BALANCE  : RAINFED                                                       
 IRRIGATION     : NOT IRRIGATED                                                 
 NITROGEN BAL.  : SOIL-N & N-UPTAKE SIMULATION; NO N-FIXATION                   
 N-FERTILIZER   :      161 kg/ha IN     5 APPLICATIONS                          
 RESIDUE/MANURE : INITIAL :     0 kg/ha ;       0 kg/ha IN     0 APPLICATIONS   
 ENVIRONM. OPT. : DAYL=    0.00  SRAD=    0.00  TMAX=    0.00  TMIN=    0.00    
                  RAIN=    0.00  CO2 =    0.00  DEW =    0.00  WIND=    0.00    
 SIMULATION OPT : WATER   :Y  NITROGEN:Y  N-FIX:N  PHOSPH :N  PESTS  :N         
                  PHOTO   :C  ET      :R  INFIL:S  HYDROL :R  SOM    :G         
                  CO2 363ppm  NSWIT   :1  EVAP :S  SOIL   :2  STEMP  :D         
 MANAGEMENT OPT : PLANTING:R  IRRIG   :N  FERT :D  RESIDUE:R  HARVEST:M         
                  WEATHER :M  TILLAGE :N                                        
                                                                                
*SUMMARY OF SOIL AND GENETIC INPUT PARAMETERS                                   
                                                                                
   SOIL LOWER UPPER   SAT  EXTR  INIT   ROOT   BULK     pH    NO3    NH4    ORG 
  DEPTH LIMIT LIMIT    SW    SW    SW   DIST   DENS                          C  
   cm   cm3/cm3    cm3/cm3    cm3/cm3         g/cm3         ugN/g  ugN/g     %  
------------------------------------------------------------------------------- 
  0-  5 0.215 0.331 0.341 0.116 0.319   1.00   1.68   6.70  11.90   4.21   0.75 
  5- 15 0.215 0.331 0.341 0.116 0.319   1.00   1.68   6.70  11.90   4.21   0.75 
 15- 25 0.215 0.331 0.341 0.116 0.319   1.00   1.68   6.70  11.90   4.21   0.75 
 25- 35 0.181 0.291 0.364 0.110 0.331   0.50   1.61   7.20  12.15   4.32   0.53 
 35- 45 0.181 0.291 0.364 0.110 0.344   0.50   1.61   7.20  12.40   4.44   0.53 
 45- 67 0.096 0.169 0.404 0.073 0.290   0.27   1.51   7.00  10.67   4.47   0.05 
 67- 90 0.096 0.169 0.404 0.073 0.195   0.27   1.51   7.00   7.63   4.53   0.05 
                                                                                
TOT- 90  13.3  21.7  34.0   8.4  25.6  <--cm   -  kg/ha-->  151.4   62.4  51964 
SOIL ALBEDO    : 0.09      EVAPORATION LIMIT : 6.00         MIN. FACTOR  : 1.00 
RUNOFF CURVE # :76.00      DRAINAGE RATE     : 0.60         FERT. FACTOR : 1.00 
                                                                                
 Maize      CULTIVAR :CI0001-P30F35             ECOTYPE :IB0001                 
 P1     : 212.00  P2     : 0.3000  P5     : 925.00                              
 G2     : 954.00  G3     :  7.000  PHINT  : 50.000                              


*SIMULATED CROP AND SOIL STATUS AT MAIN DEVELOPMENT STAGES

 RUN NO.     4     P04/17                  

        CROP GROWTH     BIOMASS         LEAF   CROP N     STRESS      STRESS                                           
   DATE  AGE STAGE        kg/ha    LAI   NUM  kg/ha  %   H2O  Nitr Phos1 Phos2  RSTG                                   
 ------  --- ----------   -----  -----  ----  ---  ---  ----  ----  ----  ----  ----                                   
 18 MAR    0 Start Sim        0   0.00   0.0    0  0.0  0.00  0.00  0.00  0.00     7
 17 APR    0 Sowing           0   0.00   0.0    0  0.0  0.00  0.00  0.00  0.00     8
 18 APR    1 Germinate        0   0.00   0.0    0  0.0  0.00  0.00  0.00  0.00     9
 23 APR    6 Emergence       25   0.00   2.0    1  4.4  0.00  0.01  0.00  0.00     1
  5 MAY   18 End Juveni      76   0.17   6.8    3  3.3  0.00  0.00  0.00  0.00     2
 12 MAY   25 Floral Ini     209   0.40   9.2    8  3.6  0.00  0.00  0.00  0.00     3
 19 JUN   63 75% Silkin    5302   3.00  19.3  103  1.9  0.00  0.00  0.00  0.00     4
 29 JUN   73 Beg Gr Fil    7436   2.84  19.3  105  1.4  0.00  0.00  0.00  0.00     5
  9 AUG  114 End Gr Fil   11911   1.07  19.3  140  1.2  0.54  0.00  0.00  0.00     6
 12 AUG  117 Maturity     11911   1.07  19.3  140  1.2  0.83  0.00  0.00  0.00    10
 12 AUG  117 Harvest      11911   1.07  19.3  140  1.2  0.00  0.00  0.00  0.00    10


*MAIN GROWTH AND DEVELOPMENT VARIABLES

@     VARIABLE                                         SIMULATED     MEASURED
      --------                                         ---------     --------
      Anthesis day (dap)                                      63          -99
      Physiological maturity day (dap)                       117          -99
      Yield at harvest maturity (kg [dm]/ha)                5638          -99
      Number at maturity (no/m2)                            2782          -99
      Unit wt at maturity (g [dm]/unit)                   0.2027          -99
      Number at maturity (no/unit)                         448.6          -99
      Tops weight at maturity (kg [dm]/ha)                 11911          -99
      By-product produced (stalk) at maturity (kg[dm]/ha    6322          -99
      Leaf area index, maximum                              3.15          -99
      Harvest index at maturity                            0.473          -99
      Grain N at maturity (kg/ha)                            101          -99
      Tops N at maturity (kg/ha)                             140          -99
      Stem N at maturity (kg/ha)                              39          -99
      Grain N at maturity (%)                                1.8          -99
      Tops weight at anthesis (kg [dm]/ha)                  5088          -99
      Tops N at anthesis (kg/ha)                             102          -99
      Leaf number per stem at maturity                     19.31          -99
      Emergence day (dap)                                      6          -99


*ENVIRONMENTAL AND STRESS FACTORS

 |-----Development Phase------|--------------------------------------Environment--------------------------------------|-----------------Stress-----------------|
                              |---------------Average--------------|-----Cumulative-----|--------Count of days--------|          (0=Min, 1=Max Stress)         |
                         Time  Temp  Temp  Temp Solar Photop                Evapo    Pot TMIN TMIN TMAX TMAX TMAX RAIN|----Water----|---Nitrogen--|-Phosphorus-|
                         Span   Max   Min  Mean   Rad  [day]    CO2   Rain  Trans     ET   <    <    >    >    >    >   Photo         Photo         Photo
                         days    邂    邂    邂 MJ/m2     hr    ppm     mm     mm     mm  0邂  2邂 30邂 32邂 34邂  0mm  synth Growth  synth Growth  synth Growth
----------------------------------------------------------------------------------------------------------------------------------------------------------------
 Emergence-End Juvenile    12  30.4  18.6  24.5  17.0  24.00  363.4   35.0   34.9   56.6    0    0    6    3    0    3  0.000  0.000  0.002  0.006  0.000  0.000
 End Juvenil-Floral Init    7  30.8  18.9  24.9  15.4  24.00  363.4   46.0   15.8   29.6    0    0    6    2    0    4  0.000  0.000  0.000  0.001  0.000  0.000
 Floral Init-End Lf Grow   38  29.5  18.9  24.2  14.0  24.00  363.5  163.0  123.8  131.2    0    0   15    2    0   13  0.000  0.000  0.000  0.000  0.000  0.000
 End Lf Grth-Beg Grn Fil   10  30.4  18.4  24.4  15.4  24.00  363.7    8.0   36.6   36.7    0    0    6    1    0    3  0.000  0.000  0.000  0.000  0.000  0.000
 Grain Filling Phase       41  32.6  18.1  25.4  18.5  24.00  363.7   70.0  101.2  190.5    0    0   39   21   10    6  0.461  0.531  0.000  0.000  0.000  0.000


 Planting to Harvest      117  30.9  18.6  24.7  16.0  24.00  363.6  360.0  327.9  476.1    0    0   78   32   10   34  0.177  0.205  0.000  0.001  0.000  0.000
----------------------------------------------------------------------------------------------------------------------------------------------------------------


*Resource Productivity
 Growing season length: 117 days 

 Precipitation during growing season       360.0 mm[rain]
   Dry Matter Productivity                  3.31 kg[DM]/m3[rain]          =   33.1 kg[DM]/ha per mm[rain]
   Yield Productivity                       1.57 kg[grain yield]/m3[rain] =   15.7 kg[yield]/ha per mm[rain]

 Evapotranspiration during growing season  327.9 mm[ET]
   Dry Matter Productivity                  3.63 kg[DM]/m3[ET]            =   36.3 kg[DM]/ha per mm[ET]
   Yield Productivity                       1.72 kg[grain yield]/m3[ET]   =   17.2 kg[yield]/ha per mm[ET]

 Transpiration during growing season       196.3 mm[EP]
   Dry Matter Productivity                  6.07 kg[DM]/m3[EP]            =   60.7 kg[DM]/ha per mm[EP]
   Yield Productivity                       2.87 kg[grain yield]/m3[EP]   =   28.7 kg[yield]/ha per mm[EP]

 N applied during growing season            161. kg[N applied]/ha
   Dry Matter Productivity                  74.0 kg[DM]/kg[N applied]
   Yield Productivity                       35.0 kg[yield]/kg[N applied]

 N uptake during growing season              154 kg[N uptake]/ha
   Dry Matter Productivity                  77.3 kg[DM]/kg[N uptake]
   Yield Productivity                       36.6 kg[yield]/kg[N uptake]

--------------------------------------------------------------------------------------------------------------

                     Maize YIELD :     5638 kg/ha    [Dry weight] 

**************************************************************************************************************

*DSSAT Cropping System Model Ver. 4.6.1.000 -release      OCT 02, 2017; 13:27:46
                                                                                
*RUN   5        : P04/22                    MZCER046 ANBU1997    5              
 MODEL          : MZCER046 - Maize                                              
 EXPERIMENT     : ANBU1997 MZ  Analisis a침os de bajo rendimiento Buga          
 DATA PATH      : C:\DSSAT46\maize\                                             
 TREATMENT  5   : P04/22                    MZCER046                            
                                                                                
                                                                                
 CROP           : Maize            CULTIVAR : P30F35           ECOTYPE :IB0001  
 STARTING DATE  : MAR 23 1997                                                   
 PLANTING DATE  : APR 22 1997        PLANTS/m2 :  6.2     ROW SPACING :  80.cm  
 WEATHER        : CUNI   1997                                                   
 SOIL           : CCBUGA2017     TEXTURE : CL    -   Suelo Buga MADR Fase I     
 SOIL INITIAL C : DEPTH: 90cm EXTR. H2O: 83.9mm  NO3:151.4kg/ha  NH4: 62.4kg/ha 
 WATER BALANCE  : RAINFED                                                       
 IRRIGATION     : NOT IRRIGATED                                                 
 NITROGEN BAL.  : SOIL-N & N-UPTAKE SIMULATION; NO N-FIXATION                   
 N-FERTILIZER   :      161 kg/ha IN     5 APPLICATIONS                          
 RESIDUE/MANURE : INITIAL :     0 kg/ha ;       0 kg/ha IN     0 APPLICATIONS   
 ENVIRONM. OPT. : DAYL=    0.00  SRAD=    0.00  TMAX=    0.00  TMIN=    0.00    
                  RAIN=    0.00  CO2 =    0.00  DEW =    0.00  WIND=    0.00    
 SIMULATION OPT : WATER   :Y  NITROGEN:Y  N-FIX:N  PHOSPH :N  PESTS  :N         
                  PHOTO   :C  ET      :R  INFIL:S  HYDROL :R  SOM    :G         
                  CO2 363ppm  NSWIT   :1  EVAP :S  SOIL   :2  STEMP  :D         
 MANAGEMENT OPT : PLANTING:R  IRRIG   :N  FERT :D  RESIDUE:R  HARVEST:M         
                  WEATHER :M  TILLAGE :N                                        
                                                                                
*SUMMARY OF SOIL AND GENETIC INPUT PARAMETERS                                   
                                                                                
   SOIL LOWER UPPER   SAT  EXTR  INIT   ROOT   BULK     pH    NO3    NH4    ORG 
  DEPTH LIMIT LIMIT    SW    SW    SW   DIST   DENS                          C  
   cm   cm3/cm3    cm3/cm3    cm3/cm3         g/cm3         ugN/g  ugN/g     %  
------------------------------------------------------------------------------- 
  0-  5 0.215 0.331 0.341 0.116 0.319   1.00   1.68   6.70  11.90   4.21   0.75 
  5- 15 0.215 0.331 0.341 0.116 0.319   1.00   1.68   6.70  11.90   4.21   0.75 
 15- 25 0.215 0.331 0.341 0.116 0.319   1.00   1.68   6.70  11.90   4.21   0.75 
 25- 35 0.181 0.291 0.364 0.110 0.331   0.50   1.61   7.20  12.15   4.32   0.53 
 35- 45 0.181 0.291 0.364 0.110 0.344   0.50   1.61   7.20  12.40   4.44   0.53 
 45- 67 0.096 0.169 0.404 0.073 0.290   0.27   1.51   7.00  10.67   4.47   0.05 
 67- 90 0.096 0.169 0.404 0.073 0.195   0.27   1.51   7.00   7.63   4.53   0.05 
                                                                                
TOT- 90  13.3  21.7  34.0   8.4  25.6  <--cm   -  kg/ha-->  151.4   62.4  51964 
SOIL ALBEDO    : 0.09      EVAPORATION LIMIT : 6.00         MIN. FACTOR  : 1.00 
RUNOFF CURVE # :76.00      DRAINAGE RATE     : 0.60         FERT. FACTOR : 1.00 
                                                                                
 Maize      CULTIVAR :CI0001-P30F35             ECOTYPE :IB0001                 
 P1     : 212.00  P2     : 0.3000  P5     : 925.00                              
 G2     : 954.00  G3     :  7.000  PHINT  : 50.000                              


*SIMULATED CROP AND SOIL STATUS AT MAIN DEVELOPMENT STAGES

 RUN NO.     5     P04/22                  

        CROP GROWTH     BIOMASS         LEAF   CROP N     STRESS      STRESS                                           
   DATE  AGE STAGE        kg/ha    LAI   NUM  kg/ha  %   H2O  Nitr Phos1 Phos2  RSTG                                   
 ------  --- ----------   -----  -----  ----  ---  ---  ----  ----  ----  ----  ----                                   
 23 MAR    0 Start Sim        0   0.00   0.0    0  0.0  0.00  0.00  0.00  0.00     7
 22 APR    0 Sowing           0   0.00   0.0    0  0.0  0.00  0.00  0.00  0.00     8
 23 APR    1 Germinate        0   0.00   0.0    0  0.0  0.00  0.00  0.00  0.00     9
 28 APR    6 Emergence       25   0.00   2.0    1  4.4  0.00  0.01  0.00  0.00     1
 10 MAY   18 End Juveni      71   0.16   6.9    3  3.6  0.00  0.00  0.00  0.00     2
 17 MAY   25 Floral Ini     217   0.42   9.3    8  3.6  0.00  0.00  0.00  0.00     3
 24 JUN   63 75% Silkin    5426   2.97  19.4  105  1.9  0.00  0.00  0.00  0.00     4
  5 JUL   74 Beg Gr Fil    8131   2.80  19.4  105  1.3  0.05  0.00  0.00  0.00     5
 14 AUG  114 End Gr Fil   11534   0.89  19.4  122  1.1  0.66  0.00  0.00  0.00     6
 17 AUG  117 Maturity     11534   0.89  19.4  122  1.1  0.91  0.00  0.00  0.00    10
 17 AUG  117 Harvest      11534   0.89  19.4  122  1.1  0.00  0.00  0.00  0.00    10


*MAIN GROWTH AND DEVELOPMENT VARIABLES

@     VARIABLE                                         SIMULATED     MEASURED
      --------                                         ---------     --------
      Anthesis day (dap)                                      63          -99
      Physiological maturity day (dap)                       117          -99
      Yield at harvest maturity (kg [dm]/ha)                4576          -99
      Number at maturity (no/m2)                            3034          -99
      Unit wt at maturity (g [dm]/unit)                   0.1508          -99
      Number at maturity (no/unit)                         489.3          -99
      Tops weight at maturity (kg [dm]/ha)                 11534          -99
      By-product produced (stalk) at maturity (kg[dm]/ha    7007          -99
      Leaf area index, maximum                              3.11          -99
      Harvest index at maturity                            0.397          -99
      Grain N at maturity (kg/ha)                             83          -99
      Tops N at maturity (kg/ha)                             122          -99
      Stem N at maturity (kg/ha)                              39          -99
      Grain N at maturity (%)                                1.8          -99
      Tops weight at anthesis (kg [dm]/ha)                  5282          -99
      Tops N at anthesis (kg/ha)                             105          -99
      Leaf number per stem at maturity                     19.37          -99
      Emergence day (dap)                                      6          -99


*ENVIRONMENTAL AND STRESS FACTORS

 |-----Development Phase------|--------------------------------------Environment--------------------------------------|-----------------Stress-----------------|
                              |---------------Average--------------|-----Cumulative-----|--------Count of days--------|          (0=Min, 1=Max Stress)         |
                         Time  Temp  Temp  Temp Solar Photop                Evapo    Pot TMIN TMIN TMAX TMAX TMAX RAIN|----Water----|---Nitrogen--|-Phosphorus-|
                         Span   Max   Min  Mean   Rad  [day]    CO2   Rain  Trans     ET   <    <    >    >    >    >   Photo         Photo         Photo
                         days    邂    邂    邂 MJ/m2     hr    ppm     mm     mm     mm  0邂  2邂 30邂 32邂 34邂  0mm  synth Growth  synth Growth  synth Growth
----------------------------------------------------------------------------------------------------------------------------------------------------------------
 Emergence-End Juvenile    12  31.7  18.5  25.1  17.3  24.00  363.4   26.0   20.7   58.2    0    0   10    5    0    3  0.000  0.000  0.002  0.005  0.000  0.000
 End Juvenil-Floral Init    7  29.4  18.8  24.1  15.5  24.00  363.5   28.0   25.2   29.5    0    0    3    0    0    4  0.000  0.000  0.001  0.002  0.000  0.000
 Floral Init-End Lf Grow   38  29.5  18.9  24.2  14.1  24.00  363.6  157.0  117.7  131.7    0    0   16    2    0   11  0.000  0.000  0.000  0.000  0.000  0.000
 End Lf Grth-Beg Grn Fil   11  30.8  17.7  24.3  17.1  24.00  363.7   25.0   44.5   44.7    0    0    8    1    0    5  0.000  0.009  0.000  0.000  0.000  0.000
 Grain Filling Phase       40  32.8  18.2  25.5  18.1  24.00  363.8   55.0   76.7  183.7    0    0   39   24   10    5  0.568  0.652  0.000  0.000  0.000  0.000


 Planting to Harvest      117  31.0  18.5  24.8  16.3  24.00  363.6  332.2  311.5  486.8    0    0   80   35   10   32  0.216  0.247  0.000  0.001  0.000  0.000
----------------------------------------------------------------------------------------------------------------------------------------------------------------


*Resource Productivity
 Growing season length: 117 days 

 Precipitation during growing season       332.2 mm[rain]
   Dry Matter Productivity                  3.47 kg[DM]/m3[rain]          =   34.7 kg[DM]/ha per mm[rain]
   Yield Productivity                       1.38 kg[grain yield]/m3[rain] =   13.8 kg[yield]/ha per mm[rain]

 Evapotranspiration during growing season  311.5 mm[ET]
   Dry Matter Productivity                  3.70 kg[DM]/m3[ET]            =   37.0 kg[DM]/ha per mm[ET]
   Yield Productivity                       1.47 kg[grain yield]/m3[ET]   =   14.7 kg[yield]/ha per mm[ET]

 Transpiration during growing season       180.1 mm[EP]
   Dry Matter Productivity                  6.40 kg[DM]/m3[EP]            =   64.0 kg[DM]/ha per mm[EP]
   Yield Productivity                       2.54 kg[grain yield]/m3[EP]   =   25.4 kg[yield]/ha per mm[EP]

 N applied during growing season            161. kg[N applied]/ha
   Dry Matter Productivity                  71.6 kg[DM]/kg[N applied]
   Yield Productivity                       28.4 kg[yield]/kg[N applied]

 N uptake during growing season              133 kg[N uptake]/ha
   Dry Matter Productivity                  86.7 kg[DM]/kg[N uptake]
   Yield Productivity                       34.4 kg[yield]/kg[N uptake]

--------------------------------------------------------------------------------------------------------------

                     Maize YIELD :     4576 kg/ha    [Dry weight] 

**************************************************************************************************************

*DSSAT Cropping System Model Ver. 4.6.1.000 -release      OCT 02, 2017; 13:27:46
                                                                                
*RUN   6        : P04/27                    MZCER046 ANBU1997    6              
 MODEL          : MZCER046 - Maize                                              
 EXPERIMENT     : ANBU1997 MZ  Analisis a침os de bajo rendimiento Buga          
 DATA PATH      : C:\DSSAT46\maize\                                             
 TREATMENT  6   : P04/27                    MZCER046                            
                                                                                
                                                                                
 CROP           : Maize            CULTIVAR : P30F35           ECOTYPE :IB0001  
 STARTING DATE  : MAR 28 1997                                                   
 PLANTING DATE  : APR 27 1997        PLANTS/m2 :  6.2     ROW SPACING :  80.cm  
 WEATHER        : CUNI   1997                                                   
 SOIL           : CCBUGA2017     TEXTURE : CL    -   Suelo Buga MADR Fase I     
 SOIL INITIAL C : DEPTH: 90cm EXTR. H2O: 83.9mm  NO3:151.4kg/ha  NH4: 62.4kg/ha 
 WATER BALANCE  : RAINFED                                                       
 IRRIGATION     : NOT IRRIGATED                                                 
 NITROGEN BAL.  : SOIL-N & N-UPTAKE SIMULATION; NO N-FIXATION                   
 N-FERTILIZER   :      161 kg/ha IN     5 APPLICATIONS                          
 RESIDUE/MANURE : INITIAL :     0 kg/ha ;       0 kg/ha IN     0 APPLICATIONS   
 ENVIRONM. OPT. : DAYL=    0.00  SRAD=    0.00  TMAX=    0.00  TMIN=    0.00    
                  RAIN=    0.00  CO2 =    0.00  DEW =    0.00  WIND=    0.00    
 SIMULATION OPT : WATER   :Y  NITROGEN:Y  N-FIX:N  PHOSPH :N  PESTS  :N         
                  PHOTO   :C  ET      :R  INFIL:S  HYDROL :R  SOM    :G         
                  CO2 363ppm  NSWIT   :1  EVAP :S  SOIL   :2  STEMP  :D         
 MANAGEMENT OPT : PLANTING:R  IRRIG   :N  FERT :D  RESIDUE:R  HARVEST:M         
                  WEATHER :M  TILLAGE :N                                        
                                                                                
*SUMMARY OF SOIL AND GENETIC INPUT PARAMETERS                                   
                                                                                
   SOIL LOWER UPPER   SAT  EXTR  INIT   ROOT   BULK     pH    NO3    NH4    ORG 
  DEPTH LIMIT LIMIT    SW    SW    SW   DIST   DENS                          C  
   cm   cm3/cm3    cm3/cm3    cm3/cm3         g/cm3         ugN/g  ugN/g     %  
------------------------------------------------------------------------------- 
  0-  5 0.215 0.331 0.341 0.116 0.319   1.00   1.68   6.70  11.90   4.21   0.75 
  5- 15 0.215 0.331 0.341 0.116 0.319   1.00   1.68   6.70  11.90   4.21   0.75 
 15- 25 0.215 0.331 0.341 0.116 0.319   1.00   1.68   6.70  11.90   4.21   0.75 
 25- 35 0.181 0.291 0.364 0.110 0.331   0.50   1.61   7.20  12.15   4.32   0.53 
 35- 45 0.181 0.291 0.364 0.110 0.344   0.50   1.61   7.20  12.40   4.44   0.53 
 45- 67 0.096 0.169 0.404 0.073 0.290   0.27   1.51   7.00  10.67   4.47   0.05 
 67- 90 0.096 0.169 0.404 0.073 0.195   0.27   1.51   7.00   7.63   4.53   0.05 
                                                                                
TOT- 90  13.3  21.7  34.0   8.4  25.6  <--cm   -  kg/ha-->  151.4   62.4  51964 
SOIL ALBEDO    : 0.09      EVAPORATION LIMIT : 6.00         MIN. FACTOR  : 1.00 
RUNOFF CURVE # :76.00      DRAINAGE RATE     : 0.60         FERT. FACTOR : 1.00 
                                                                                
 Maize      CULTIVAR :CI0001-P30F35             ECOTYPE :IB0001                 
 P1     : 212.00  P2     : 0.3000  P5     : 925.00                              
 G2     : 954.00  G3     :  7.000  PHINT  : 50.000                              


*SIMULATED CROP AND SOIL STATUS AT MAIN DEVELOPMENT STAGES

 RUN NO.     6     P04/27                  

        CROP GROWTH     BIOMASS         LEAF   CROP N     STRESS      STRESS                                           
   DATE  AGE STAGE        kg/ha    LAI   NUM  kg/ha  %   H2O  Nitr Phos1 Phos2  RSTG                                   
 ------  --- ----------   -----  -----  ----  ---  ---  ----  ----  ----  ----  ----                                   
 28 MAR    0 Start Sim        0   0.00   0.0    0  0.0  0.00  0.00  0.00  0.00     7
 27 APR    0 Sowing           0   0.00   0.0    0  0.0  0.00  0.00  0.00  0.00     8
 28 APR    1 Germinate        0   0.00   0.0    0  0.0  0.00  0.00  0.00  0.00     9
  3 MAY    6 Emergence       25   0.00   2.0    1  4.4  0.00  0.01  0.00  0.00     1
 15 MAY   18 End Juveni      60   0.13   6.8    2  3.3  0.00  0.00  0.00  0.00     2
 22 MAY   25 Floral Ini     236   0.45   9.3    9  3.6  0.00  0.00  0.00  0.00     3
 30 JUN   64 75% Silkin    5764   2.97  19.6  112  1.9  0.00  0.00  0.00  0.00     4
 10 JUL   74 Beg Gr Fil    7623   2.53  19.6  113  1.5  0.42  0.00  0.00  0.00     5
 19 AUG  114 End Gr Fil   10431   0.72  19.6  122  1.2  0.70  0.00  0.00  0.00     6
 22 AUG  117 Maturity     10431   0.72  19.6  122  1.2  0.95  0.00  0.00  0.00    10
 22 AUG  117 Harvest      10431   0.72  19.6  122  1.2  0.00  0.00  0.00  0.00    10


*MAIN GROWTH AND DEVELOPMENT VARIABLES

@     VARIABLE                                         SIMULATED     MEASURED
      --------                                         ---------     --------
      Anthesis day (dap)                                      64          -99
      Physiological maturity day (dap)                       117          -99
      Yield at harvest maturity (kg [dm]/ha)                4273          -99
      Number at maturity (no/m2)                            2644          -99
      Unit wt at maturity (g [dm]/unit)                   0.1616          -99
      Number at maturity (no/unit)                         426.5          -99
      Tops weight at maturity (kg [dm]/ha)                 10431          -99
      By-product produced (stalk) at maturity (kg[dm]/ha    6207          -99
      Leaf area index, maximum                              3.12          -99
      Harvest index at maturity                            0.410          -99
      Grain N at maturity (kg/ha)                             78          -99
      Tops N at maturity (kg/ha)                             122          -99
      Stem N at maturity (kg/ha)                              45          -99
      Grain N at maturity (%)                                1.8          -99
      Tops weight at anthesis (kg [dm]/ha)                  5516          -99
      Tops N at anthesis (kg/ha)                             111          -99
      Leaf number per stem at maturity                     19.57          -99
      Emergence day (dap)                                      6          -99


*ENVIRONMENTAL AND STRESS FACTORS

 |-----Development Phase------|--------------------------------------Environment--------------------------------------|-----------------Stress-----------------|
                              |---------------Average--------------|-----Cumulative-----|--------Count of days--------|          (0=Min, 1=Max Stress)         |
                         Time  Temp  Temp  Temp Solar Photop                Evapo    Pot TMIN TMIN TMAX TMAX TMAX RAIN|----Water----|---Nitrogen--|-Phosphorus-|
                         Span   Max   Min  Mean   Rad  [day]    CO2   Rain  Trans     ET   <    <    >    >    >    >   Photo         Photo         Photo
                         days    邂    邂    邂 MJ/m2     hr    ppm     mm     mm     mm  0邂  2邂 30邂 32邂 34邂  0mm  synth Growth  synth Growth  synth Growth
----------------------------------------------------------------------------------------------------------------------------------------------------------------
 Emergence-End Juvenile    12  30.7  18.6  24.7  16.0  24.00  363.4   54.0   33.5   53.6    0    0    8    3    0    7  0.000  0.000  0.002  0.004  0.000  0.000
 End Juvenil-Floral Init    7  31.0  19.1  25.1  15.0  24.00  363.5   12.0   11.5   28.8    0    0    6    1    0    1  0.000  0.000  0.001  0.002  0.000  0.000
 Floral Init-End Lf Grow   39  29.4  18.7  24.1  14.1  24.00  363.6  167.0  124.4  135.0    0    0   15    2    0   14  0.000  0.000  0.000  0.000  0.000  0.000
 End Lf Grth-Beg Grn Fil   10  31.3  18.0  24.6  17.9  24.00  363.7    3.0   35.8   42.9    0    0    8    2    0    1  0.210  0.336  0.000  0.000  0.000  0.000
 Grain Filling Phase       40  33.1  18.1  25.6  18.4  24.00  363.8   55.2   66.8  188.8    0    0   40   27   11    6  0.637  0.699  0.000  0.000  0.000  0.000


 Planting to Harvest      117  31.3  18.4  24.9  16.5  24.00  363.6  291.2  288.1  496.3    0    0   84   39   13   29  0.259  0.292  0.000  0.001  0.000  0.000
----------------------------------------------------------------------------------------------------------------------------------------------------------------


*Resource Productivity
 Growing season length: 117 days 

 Precipitation during growing season       291.2 mm[rain]
   Dry Matter Productivity                  3.58 kg[DM]/m3[rain]          =   35.8 kg[DM]/ha per mm[rain]
   Yield Productivity                       1.47 kg[grain yield]/m3[rain] =   14.7 kg[yield]/ha per mm[rain]

 Evapotranspiration during growing season  288.1 mm[ET]
   Dry Matter Productivity                  3.62 kg[DM]/m3[ET]            =   36.2 kg[DM]/ha per mm[ET]
   Yield Productivity                       1.48 kg[grain yield]/m3[ET]   =   14.8 kg[yield]/ha per mm[ET]

 Transpiration during growing season       162.2 mm[EP]
   Dry Matter Productivity                  6.43 kg[DM]/m3[EP]            =   64.3 kg[DM]/ha per mm[EP]
   Yield Productivity                       2.63 kg[grain yield]/m3[EP]   =   26.3 kg[yield]/ha per mm[EP]

 N applied during growing season            161. kg[N applied]/ha
   Dry Matter Productivity                  64.8 kg[DM]/kg[N applied]
   Yield Productivity                       26.5 kg[yield]/kg[N applied]

 N uptake during growing season              133 kg[N uptake]/ha
   Dry Matter Productivity                  78.4 kg[DM]/kg[N uptake]
   Yield Productivity                       32.1 kg[yield]/kg[N uptake]

--------------------------------------------------------------------------------------------------------------

                     Maize YIELD :     4273 kg/ha    [Dry weight] 

**************************************************************************************************************

*DSSAT Cropping System Model Ver. 4.6.1.000 -release      OCT 02, 2017; 13:27:46
                                                                                
*RUN   7        : P05/02                    MZCER046 ANBU1997    7              
 MODEL          : MZCER046 - Maize                                              
 EXPERIMENT     : ANBU1997 MZ  Analisis a침os de bajo rendimiento Buga          
 DATA PATH      : C:\DSSAT46\maize\                                             
 TREATMENT  7   : P05/02                    MZCER046                            
                                                                                
                                                                                
 CROP           : Maize            CULTIVAR : P30F35           ECOTYPE :IB0001  
 STARTING DATE  : APR  2 1997                                                   
 PLANTING DATE  : MAY  2 1997        PLANTS/m2 :  6.2     ROW SPACING :  80.cm  
 WEATHER        : CUNI   1997                                                   
 SOIL           : CCBUGA2017     TEXTURE : CL    -   Suelo Buga MADR Fase I     
 SOIL INITIAL C : DEPTH: 90cm EXTR. H2O: 83.9mm  NO3:151.4kg/ha  NH4: 62.4kg/ha 
 WATER BALANCE  : RAINFED                                                       
 IRRIGATION     : NOT IRRIGATED                                                 
 NITROGEN BAL.  : SOIL-N & N-UPTAKE SIMULATION; NO N-FIXATION                   
 N-FERTILIZER   :      161 kg/ha IN     5 APPLICATIONS                          
 RESIDUE/MANURE : INITIAL :     0 kg/ha ;       0 kg/ha IN     0 APPLICATIONS   
 ENVIRONM. OPT. : DAYL=    0.00  SRAD=    0.00  TMAX=    0.00  TMIN=    0.00    
                  RAIN=    0.00  CO2 =    0.00  DEW =    0.00  WIND=    0.00    
 SIMULATION OPT : WATER   :Y  NITROGEN:Y  N-FIX:N  PHOSPH :N  PESTS  :N         
                  PHOTO   :C  ET      :R  INFIL:S  HYDROL :R  SOM    :G         
                  CO2 363ppm  NSWIT   :1  EVAP :S  SOIL   :2  STEMP  :D         
 MANAGEMENT OPT : PLANTING:R  IRRIG   :N  FERT :D  RESIDUE:R  HARVEST:M         
                  WEATHER :M  TILLAGE :N                                        
                                                                                
*SUMMARY OF SOIL AND GENETIC INPUT PARAMETERS                                   
                                                                                
   SOIL LOWER UPPER   SAT  EXTR  INIT   ROOT   BULK     pH    NO3    NH4    ORG 
  DEPTH LIMIT LIMIT    SW    SW    SW   DIST   DENS                          C  
   cm   cm3/cm3    cm3/cm3    cm3/cm3         g/cm3         ugN/g  ugN/g     %  
------------------------------------------------------------------------------- 
  0-  5 0.215 0.331 0.341 0.116 0.319   1.00   1.68   6.70  11.90   4.21   0.75 
  5- 15 0.215 0.331 0.341 0.116 0.319   1.00   1.68   6.70  11.90   4.21   0.75 
 15- 25 0.215 0.331 0.341 0.116 0.319   1.00   1.68   6.70  11.90   4.21   0.75 
 25- 35 0.181 0.291 0.364 0.110 0.331   0.50   1.61   7.20  12.15   4.32   0.53 
 35- 45 0.181 0.291 0.364 0.110 0.344   0.50   1.61   7.20  12.40   4.44   0.53 
 45- 67 0.096 0.169 0.404 0.073 0.290   0.27   1.51   7.00  10.67   4.47   0.05 
 67- 90 0.096 0.169 0.404 0.073 0.195   0.27   1.51   7.00   7.63   4.53   0.05 
                                                                                
TOT- 90  13.3  21.7  34.0   8.4  25.6  <--cm   -  kg/ha-->  151.4   62.4  51964 
SOIL ALBEDO    : 0.09      EVAPORATION LIMIT : 6.00         MIN. FACTOR  : 1.00 
RUNOFF CURVE # :76.00      DRAINAGE RATE     : 0.60         FERT. FACTOR : 1.00 
                                                                                
 Maize      CULTIVAR :CI0001-P30F35             ECOTYPE :IB0001                 
 P1     : 212.00  P2     : 0.3000  P5     : 925.00                              
 G2     : 954.00  G3     :  7.000  PHINT  : 50.000                              


*SIMULATED CROP AND SOIL STATUS AT MAIN DEVELOPMENT STAGES

 RUN NO.     7     P05/02                  

        CROP GROWTH     BIOMASS         LEAF   CROP N     STRESS      STRESS                                           
   DATE  AGE STAGE        kg/ha    LAI   NUM  kg/ha  %   H2O  Nitr Phos1 Phos2  RSTG                                   
 ------  --- ----------   -----  -----  ----  ---  ---  ----  ----  ----  ----  ----                                   
  2 APR    0 Start Sim        0   0.00   0.0    0  0.0  0.00  0.00  0.00  0.00     7
  2 MAY    0 Sowing           0   0.00   0.0    0  0.0  0.00  0.00  0.00  0.00     8
  3 MAY    1 Germinate        0   0.00   0.0    0  0.0  0.00  0.00  0.00  0.00     9
  8 MAY    6 Emergence       25   0.00   2.1    1  4.4  0.00  0.01  0.00  0.00     1
 20 MAY   18 End Juveni      73   0.16   6.8    2  3.3  0.00  0.00  0.00  0.00     2
 27 MAY   25 Floral Ini     213   0.41   9.2    8  3.6  0.00  0.00  0.00  0.00     3
  5 JUL   64 75% Silkin    5709   2.84  19.5  110  1.9  0.02  0.00  0.00  0.00     4
 15 JUL   74 Beg Gr Fil    6275   2.04  19.5  110  1.8  0.77  0.00  0.00  0.00     5
 24 AUG  114 End Gr Fil    8305   0.56  19.5  110  1.3  0.71  0.00  0.00  0.00     6
 27 AUG  117 Maturity      8305   0.56  19.5  110  1.3  0.97  0.00  0.00  0.00    10
 27 AUG  117 Harvest       8305   0.56  19.5  110  1.3  0.00  0.00  0.00  0.00    10


*MAIN GROWTH AND DEVELOPMENT VARIABLES

@     VARIABLE                                         SIMULATED     MEASURED
      --------                                         ---------     --------
      Anthesis day (dap)                                      64          -99
      Physiological maturity day (dap)                       117          -99
      Yield at harvest maturity (kg [dm]/ha)                2466          -99
      Number at maturity (no/m2)                            1373          -99
      Unit wt at maturity (g [dm]/unit)                   0.1796          -99
      Number at maturity (no/unit)                         221.4          -99
      Tops weight at maturity (kg [dm]/ha)                  8305          -99
      By-product produced (stalk) at maturity (kg[dm]/ha    5887          -99
      Leaf area index, maximum                              2.98          -99
      Harvest index at maturity                            0.297          -99
      Grain N at maturity (kg/ha)                             45          -99
      Tops N at maturity (kg/ha)                             110          -99
      Stem N at maturity (kg/ha)                              65          -99
      Grain N at maturity (%)                                1.8          -99
      Tops weight at anthesis (kg [dm]/ha)                  5503          -99
      Tops N at anthesis (kg/ha)                             106          -99
      Leaf number per stem at maturity                     19.50          -99
      Emergence day (dap)                                      6          -99


*ENVIRONMENTAL AND STRESS FACTORS

 |-----Development Phase------|--------------------------------------Environment--------------------------------------|-----------------Stress-----------------|
                              |---------------Average--------------|-----Cumulative-----|--------Count of days--------|          (0=Min, 1=Max Stress)         |
                         Time  Temp  Temp  Temp Solar Photop                Evapo    Pot TMIN TMIN TMAX TMAX TMAX RAIN|----Water----|---Nitrogen--|-Phosphorus-|
                         Span   Max   Min  Mean   Rad  [day]    CO2   Rain  Trans     ET   <    <    >    >    >    >   Photo         Photo         Photo
                         days    邂    邂    邂 MJ/m2     hr    ppm     mm     mm     mm  0邂  2邂 30邂 32邂 34邂  0mm  synth Growth  synth Growth  synth Growth
----------------------------------------------------------------------------------------------------------------------------------------------------------------
 Emergence-End Juvenile    12  30.4  19.0  24.7  15.4  24.00  363.5   40.0   35.2   51.5    0    0    8    2    0    5  0.000  0.000  0.002  0.004  0.000  0.000
 End Juvenil-Floral Init    7  30.1  19.3  24.7  14.3  24.00  363.5   30.0   13.8   27.3    0    0    4    1    0    3  0.000  0.000  0.001  0.002  0.000  0.000
 Floral Init-End Lf Grow   39  29.6  18.4  24.0  14.9  24.00  363.6  152.0  134.0  143.1    0    0   17    1    0   13  0.001  0.010  0.000  0.000  0.000  0.000
 End Lf Grth-Beg Grn Fil   10  32.0  18.5  25.3  18.8  24.00  363.7    0.0   19.5   45.8    0    0    9    4    1    0  0.601  0.735  0.000  0.000  0.000  0.000
 Grain Filling Phase       40  33.2  18.0  25.6  18.1  24.00  363.8   55.2   62.3  188.0    0    0   40   29   12    6  0.647  0.704  0.000  0.000  0.000  0.000


 Planting to Harvest      117  31.3  18.4  24.9  16.5  24.00  363.7  292.1  271.7  497.1    0    0   86   42   14   30  0.298  0.332  0.000  0.001  0.000  0.000
----------------------------------------------------------------------------------------------------------------------------------------------------------------


*Resource Productivity
 Growing season length: 117 days 

 Precipitation during growing season       292.1 mm[rain]
   Dry Matter Productivity                  2.84 kg[DM]/m3[rain]          =   28.4 kg[DM]/ha per mm[rain]
   Yield Productivity                       0.84 kg[grain yield]/m3[rain] =    8.4 kg[yield]/ha per mm[rain]

 Evapotranspiration during growing season  271.7 mm[ET]
   Dry Matter Productivity                  3.06 kg[DM]/m3[ET]            =   30.6 kg[DM]/ha per mm[ET]
   Yield Productivity                       0.91 kg[grain yield]/m3[ET]   =    9.1 kg[yield]/ha per mm[ET]

 Transpiration during growing season       145.1 mm[EP]
   Dry Matter Productivity                  5.72 kg[DM]/m3[EP]            =   57.2 kg[DM]/ha per mm[EP]
   Yield Productivity                       1.70 kg[grain yield]/m3[EP]   =   17.0 kg[yield]/ha per mm[EP]

 N applied during growing season            161. kg[N applied]/ha
   Dry Matter Productivity                  51.6 kg[DM]/kg[N applied]
   Yield Productivity                       15.3 kg[yield]/kg[N applied]

 N uptake during growing season              122 kg[N uptake]/ha
   Dry Matter Productivity                  68.1 kg[DM]/kg[N uptake]
   Yield Productivity                       20.2 kg[yield]/kg[N uptake]

--------------------------------------------------------------------------------------------------------------

                     Maize YIELD :     2466 kg/ha    [Dry weight] 

**************************************************************************************************************

*DSSAT Cropping System Model Ver. 4.6.1.000 -release      OCT 02, 2017; 13:27:46
                                                                                
*RUN   8        : P05/07                    MZCER046 ANBU1997    8              
 MODEL          : MZCER046 - Maize                                              
 EXPERIMENT     : ANBU1997 MZ  Analisis a침os de bajo rendimiento Buga          
 DATA PATH      : C:\DSSAT46\maize\                                             
 TREATMENT  8   : P05/07                    MZCER046                            
                                                                                
                                                                                
 CROP           : Maize            CULTIVAR : P30F35           ECOTYPE :IB0001  
 STARTING DATE  : APR  7 1997                                                   
 PLANTING DATE  : MAY  7 1997        PLANTS/m2 :  6.2     ROW SPACING :  80.cm  
 WEATHER        : CUNI   1997                                                   
 SOIL           : CCBUGA2017     TEXTURE : CL    -   Suelo Buga MADR Fase I     
 SOIL INITIAL C : DEPTH: 90cm EXTR. H2O: 83.9mm  NO3:151.4kg/ha  NH4: 62.4kg/ha 
 WATER BALANCE  : RAINFED                                                       
 IRRIGATION     : NOT IRRIGATED                                                 
 NITROGEN BAL.  : SOIL-N & N-UPTAKE SIMULATION; NO N-FIXATION                   
 N-FERTILIZER   :      161 kg/ha IN     5 APPLICATIONS                          
 RESIDUE/MANURE : INITIAL :     0 kg/ha ;       0 kg/ha IN     0 APPLICATIONS   
 ENVIRONM. OPT. : DAYL=    0.00  SRAD=    0.00  TMAX=    0.00  TMIN=    0.00    
                  RAIN=    0.00  CO2 =    0.00  DEW =    0.00  WIND=    0.00    
 SIMULATION OPT : WATER   :Y  NITROGEN:Y  N-FIX:N  PHOSPH :N  PESTS  :N         
                  PHOTO   :C  ET      :R  INFIL:S  HYDROL :R  SOM    :G         
                  CO2 363ppm  NSWIT   :1  EVAP :S  SOIL   :2  STEMP  :D         
 MANAGEMENT OPT : PLANTING:R  IRRIG   :N  FERT :D  RESIDUE:R  HARVEST:M         
                  WEATHER :M  TILLAGE :N                                        
                                                                                
*SUMMARY OF SOIL AND GENETIC INPUT PARAMETERS                                   
                                                                                
   SOIL LOWER UPPER   SAT  EXTR  INIT   ROOT   BULK     pH    NO3    NH4    ORG 
  DEPTH LIMIT LIMIT    SW    SW    SW   DIST   DENS                          C  
   cm   cm3/cm3    cm3/cm3    cm3/cm3         g/cm3         ugN/g  ugN/g     %  
------------------------------------------------------------------------------- 
  0-  5 0.215 0.331 0.341 0.116 0.319   1.00   1.68   6.70  11.90   4.21   0.75 
  5- 15 0.215 0.331 0.341 0.116 0.319   1.00   1.68   6.70  11.90   4.21   0.75 
 15- 25 0.215 0.331 0.341 0.116 0.319   1.00   1.68   6.70  11.90   4.21   0.75 
 25- 35 0.181 0.291 0.364 0.110 0.331   0.50   1.61   7.20  12.15   4.32   0.53 
 35- 45 0.181 0.291 0.364 0.110 0.344   0.50   1.61   7.20  12.40   4.44   0.53 
 45- 67 0.096 0.169 0.404 0.073 0.290   0.27   1.51   7.00  10.67   4.47   0.05 
 67- 90 0.096 0.169 0.404 0.073 0.195   0.27   1.51   7.00   7.63   4.53   0.05 
                                                                                
TOT- 90  13.3  21.7  34.0   8.4  25.6  <--cm   -  kg/ha-->  151.4   62.4  51964 
SOIL ALBEDO    : 0.09      EVAPORATION LIMIT : 6.00         MIN. FACTOR  : 1.00 
RUNOFF CURVE # :76.00      DRAINAGE RATE     : 0.60         FERT. FACTOR : 1.00 
                                                                                
 Maize      CULTIVAR :CI0001-P30F35             ECOTYPE :IB0001                 
 P1     : 212.00  P2     : 0.3000  P5     : 925.00                              
 G2     : 954.00  G3     :  7.000  PHINT  : 50.000                              


*SIMULATED CROP AND SOIL STATUS AT MAIN DEVELOPMENT STAGES

 RUN NO.     8     P05/07                  

        CROP GROWTH     BIOMASS         LEAF   CROP N     STRESS      STRESS                                           
   DATE  AGE STAGE        kg/ha    LAI   NUM  kg/ha  %   H2O  Nitr Phos1 Phos2  RSTG                                   
 ------  --- ----------   -----  -----  ----  ---  ---  ----  ----  ----  ----  ----                                   
  7 APR    0 Start Sim        0   0.00   0.0    0  0.0  0.00  0.00  0.00  0.00     7
  7 MAY    0 Sowing           0   0.00   0.0    0  0.0  0.00  0.00  0.00  0.00     8
  8 MAY    1 Germinate        0   0.00   0.0    0  0.0  0.00  0.00  0.00  0.00     9
 13 MAY    6 Emergence       25   0.00   2.0    1  4.4  0.00  0.01  0.00  0.00     1
 25 MAY   18 End Juveni      65   0.14   6.9    2  3.5  0.00  0.00  0.00  0.00     2
  1 JUN   25 Floral Ini     181   0.36   9.1    7  3.6  0.00  0.00  0.00  0.00     3
  9 JUL   63 75% Silkin    5163   2.72  19.1  105  2.0  0.10  0.00  0.00  0.00     4
 19 JUL   73 Beg Gr Fil    5391   1.80  19.1  106  2.0  0.87  0.00  0.00  0.00     5
 28 AUG  113 End Gr Fil    6733   0.48  19.1  106  1.6  0.72  0.00  0.00  0.00     6
 31 AUG  116 Maturity      6733   0.48  19.1  106  1.6  0.98  0.00  0.00  0.00    10
[...]
 NITROGEN BAL.  : SOIL-N & N-UPTAKE SIMULATION; NO N-FIXATION                   
 N-FERTILIZER   :      161 kg/ha IN     5 APPLICATIONS                          
 RESIDUE/MANURE : INITIAL :     0 kg/ha ;       0 kg/ha IN     0 APPLICATIONS   
 ENVIRONM. OPT. : DAYL=    0.00  SRAD=    0.00  TMAX=    0.00  TMIN=    0.00    
                  RAIN=    0.00  CO2 =    0.00  DEW =    0.00  WIND=    0.00    
 SIMULATION OPT : WATER   :Y  NITROGEN:Y  N-FIX:N  PHOSPH :N  PESTS  :N         
                  PHOTO   :C  ET      :R  INFIL:S  HYDROL :R  SOM    :G         
                  CO2 364ppm  NSWIT   :1  EVAP :S  SOIL   :2  STEMP  :D         
 MANAGEMENT OPT : PLANTING:R  IRRIG   :N  FERT :D  RESIDUE:R  HARVEST:M         
                  WEATHER :M  TILLAGE :N                                        
                                                                                
*SUMMARY OF SOIL AND GENETIC INPUT PARAMETERS                                   
                                                                                
   SOIL LOWER UPPER   SAT  EXTR  INIT   ROOT   BULK     pH    NO3    NH4    ORG 
  DEPTH LIMIT LIMIT    SW    SW    SW   DIST   DENS                          C  
   cm   cm3/cm3    cm3/cm3    cm3/cm3         g/cm3         ugN/g  ugN/g     %  
------------------------------------------------------------------------------- 
  0-  5 0.215 0.331 0.341 0.116 0.319   1.00   1.68   6.70  11.90   4.21   0.75 
  5- 15 0.215 0.331 0.341 0.116 0.319   1.00   1.68   6.70  11.90   4.21   0.75 
 15- 25 0.215 0.331 0.341 0.116 0.319   1.00   1.68   6.70  11.90   4.21   0.75 
 25- 35 0.181 0.291 0.364 0.110 0.331   0.50   1.61   7.20  12.15   4.32   0.53 
 35- 45 0.181 0.291 0.364 0.110 0.344   0.50   1.61   7.20  12.40   4.44   0.53 
 45- 67 0.096 0.169 0.404 0.073 0.290   0.27   1.51   7.00  10.67   4.47   0.05 
 67- 90 0.096 0.169 0.404 0.073 0.195   0.27   1.51   7.00   7.63   4.53   0.05 
                                                                                
TOT- 90  13.3  21.7  34.0   8.4  25.6  <--cm   -  kg/ha-->  151.4   62.4  51964 
SOIL ALBEDO    : 0.09      EVAPORATION LIMIT : 6.00         MIN. FACTOR  : 1.00 
RUNOFF CURVE # :76.00      DRAINAGE RATE     : 0.60         FERT. FACTOR : 1.00 
                                                                                
 Maize      CULTIVAR :CI0001-P30F35             ECOTYPE :IB0001                 
 P1     : 212.00  P2     : 0.3000  P5     : 925.00                              
 G2     : 954.00  G3     :  7.000  PHINT  : 50.000                              


*SIMULATED CROP AND SOIL STATUS AT MAIN DEVELOPMENT STAGES

 RUN NO.    35     P12/14                  

        CROP GROWTH     BIOMASS         LEAF   CROP N     STRESS      STRESS                                           
   DATE  AGE STAGE        kg/ha    LAI   NUM  kg/ha  %   H2O  Nitr Phos1 Phos2  RSTG                                   
 ------  --- ----------   -----  -----  ----  ---  ---  ----  ----  ----  ----  ----                                   
 14 NOV    0 Start Sim        0   0.00   0.0    0  0.0  0.00  0.00  0.00  0.00     7
 14 DEC    0 Sowing           0   0.00   0.0    0  0.0  0.00  0.00  0.00  0.00     8
 15 DEC    1 Germinate        0   0.00   0.0    0  0.0  0.00  0.00  0.00  0.00     9
 20 DEC    6 Emergence       25   0.00   2.1    1  4.4  0.00  0.01  0.00  0.00     1
 31 DEC   17 End Juveni      80   0.17   6.7    3  3.3  0.00  0.00  0.00  0.00     2
  4 JAN   21 Floral Ini     177   0.35   8.3    7  3.7  0.08  0.00  0.00  0.00     3
  5 FEB   53 75% Silkin    2302   1.08  17.4   53  2.3  0.49  0.00  0.00  0.00     4
 14 FEB   62 Beg Gr Fil    2727   0.94  17.4   53  2.0  0.38  0.00  0.00  0.00     5
 26 MAR  102 End Gr Fil    3712   0.23  17.4   53  1.4  0.78  0.00  0.00  0.00     6
 29 MAR  105 Maturity      3712   0.23  17.4   53  1.4  0.00  0.00  0.00  0.00    10
 29 MAR  105 Harvest       3712   0.23  17.4   53  1.4  0.00  0.00  0.00  0.00    10


*MAIN GROWTH AND DEVELOPMENT VARIABLES

@     VARIABLE                                         SIMULATED     MEASURED
      --------                                         ---------     --------
      Anthesis day (dap)                                      53          -99
      Physiological maturity day (dap)                       105          -99
      Yield at harvest maturity (kg [dm]/ha)                1427          -99
      Number at maturity (no/m2)                             945          -99
      Unit wt at maturity (g [dm]/unit)                   0.1511          -99
      Number at maturity (no/unit)                         152.3          -99
      Tops weight at maturity (kg [dm]/ha)                  3712          -99
      By-product produced (stalk) at maturity (kg[dm]/ha    2315          -99
      Leaf area index, maximum                              1.55          -99
      Harvest index at maturity                            0.384          -99
      Grain N at maturity (kg/ha)                             26          -99
      Tops N at maturity (kg/ha)                              53          -99
      Stem N at maturity (kg/ha)                              27          -99
      Grain N at maturity (%)                                1.8          -99
      Tops weight at anthesis (kg [dm]/ha)                  2286          -99
      Tops N at anthesis (kg/ha)                              53          -99
      Leaf number per stem at maturity                     17.45          -99
      Emergence day (dap)                                      6          -99


*ENVIRONMENTAL AND STRESS FACTORS

 |-----Development Phase------|--------------------------------------Environment--------------------------------------|-----------------Stress-----------------|
                              |---------------Average--------------|-----Cumulative-----|--------Count of days--------|          (0=Min, 1=Max Stress)         |
                         Time  Temp  Temp  Temp Solar Photop                Evapo    Pot TMIN TMIN TMAX TMAX TMAX RAIN|----Water----|---Nitrogen--|-Phosphorus-|
                         Span   Max   Min  Mean   Rad  [day]    CO2   Rain  Trans     ET   <    <    >    >    >    >   Photo         Photo         Photo
                         days    邂    邂    邂 MJ/m2     hr    ppm     mm     mm     mm  0邂  2邂 30邂 32邂 34邂  0mm  synth Growth  synth Growth  synth Growth
----------------------------------------------------------------------------------------------------------------------------------------------------------------
 Emergence-End Juvenile    11  32.8  18.0  25.4  17.4   0.00  364.9    9.0    7.2   53.1    0    0   11    8    0    1  0.000  0.000  0.002  0.004  0.000  0.000
 End Juvenil-Floral Init    4  33.7  18.5  26.1  18.8   0.00  364.9    0.0    6.3   21.1    0    0    4    3    1    0  0.000  0.076  0.001  0.002  0.000  0.000
 Floral Init-End Lf Grow   32  33.4  19.0  26.2  19.1   0.00  365.1   11.0   65.3  159.8    0    0   30   27    9    2  0.362  0.465  0.000  0.000  0.000  0.000
 End Lf Grth-Beg Grn Fil    9  31.8  19.1  25.4  13.0   0.00  365.2   44.0   17.1   30.2    0    0    6    5    1    5  0.376  0.470  0.000  0.000  0.000  0.000
 Grain Filling Phase       40  32.6  19.2  25.9  18.0   5.36  365.5   19.3   51.6  193.7    0    0   34   29    5    7  0.697  0.754  0.000  0.000  0.000  0.000


 Planting to Harvest      105  32.7  19.0  25.8  17.6   2.43  365.2  125.3  156.5  495.2    0    0   91   74   16   19  0.417  0.481  0.000  0.001  0.000  0.000
----------------------------------------------------------------------------------------------------------------------------------------------------------------


*Resource Productivity
 Growing season length: 105 days 

 Precipitation during growing season       125.3 mm[rain]
   Dry Matter Productivity                  2.96 kg[DM]/m3[rain]          =   29.6 kg[DM]/ha per mm[rain]
   Yield Productivity                       1.14 kg[grain yield]/m3[rain] =   11.4 kg[yield]/ha per mm[rain]

 Evapotranspiration during growing season  156.5 mm[ET]
   Dry Matter Productivity                  2.37 kg[DM]/m3[ET]            =   23.7 kg[DM]/ha per mm[ET]
   Yield Productivity                       0.91 kg[grain yield]/m3[ET]   =    9.1 kg[yield]/ha per mm[ET]

 Transpiration during growing season        83.0 mm[EP]
   Dry Matter Productivity                  4.47 kg[DM]/m3[EP]            =   44.7 kg[DM]/ha per mm[EP]
   Yield Productivity                       1.72 kg[grain yield]/m3[EP]   =   17.2 kg[yield]/ha per mm[EP]

 N applied during growing season            161. kg[N applied]/ha
   Dry Matter Productivity                  23.1 kg[DM]/kg[N applied]
   Yield Productivity                        8.9 kg[yield]/kg[N applied]

 N uptake during growing season               61 kg[N uptake]/ha
   Dry Matter Productivity                  60.9 kg[DM]/kg[N uptake]
   Yield Productivity                       23.4 kg[yield]/kg[N uptake]

--------------------------------------------------------------------------------------------------------------

                     Maize YIELD :     1427 kg/ha    [Dry weight] 

**************************************************************************************************************

*DSSAT Cropping System Model Ver. 4.6.1.000 -release      OCT 02, 2017; 13:27:50
                                                                                
*RUN  36        : P12/19                    MZCER046 ANBU1997   36              
 MODEL          : MZCER046 - Maize                                              
 EXPERIMENT     : ANBU1997 MZ  Analisis a침os de bajo rendimiento Buga          
 DATA PATH      : C:\DSSAT46\maize\                                             
 TREATMENT 36   : P12/19                    MZCER046                            
                                                                                
                                                                                
 CROP           : Maize            CULTIVAR : P30F35           ECOTYPE :IB0001  
 STARTING DATE  : NOV 19 1997                                                   
 PLANTING DATE  : DEC 19 1997        PLANTS/m2 :  6.2     ROW SPACING :  80.cm  
 WEATHER        : CUNI   1997                                                   
 SOIL           : CCBUGA2017     TEXTURE : CL    -   Suelo Buga MADR Fase I     
 SOIL INITIAL C : DEPTH: 90cm EXTR. H2O: 83.9mm  NO3:151.4kg/ha  NH4: 62.4kg/ha 
 WATER BALANCE  : RAINFED                                                       
 IRRIGATION     : NOT IRRIGATED                                                 
 NITROGEN BAL.  : SOIL-N & N-UPTAKE SIMULATION; NO N-FIXATION                   
 N-FERTILIZER   :      161 kg/ha IN     5 APPLICATIONS                          
 RESIDUE/MANURE : INITIAL :     0 kg/ha ;       0 kg/ha IN     0 APPLICATIONS   
 ENVIRONM. OPT. : DAYL=    0.00  SRAD=    0.00  TMAX=    0.00  TMIN=    0.00    
                  RAIN=    0.00  CO2 =    0.00  DEW =    0.00  WIND=    0.00    
 SIMULATION OPT : WATER   :Y  NITROGEN:Y  N-FIX:N  PHOSPH :N  PESTS  :N         
                  PHOTO   :C  ET      :R  INFIL:S  HYDROL :R  SOM    :G         
                  CO2 365ppm  NSWIT   :1  EVAP :S  SOIL   :2  STEMP  :D         
 MANAGEMENT OPT : PLANTING:R  IRRIG   :N  FERT :D  RESIDUE:R  HARVEST:M         
                  WEATHER :M  TILLAGE :N                                        
                                                                                
*SUMMARY OF SOIL AND GENETIC INPUT PARAMETERS                                   
                                                                                
   SOIL LOWER UPPER   SAT  EXTR  INIT   ROOT   BULK     pH    NO3    NH4    ORG 
  DEPTH LIMIT LIMIT    SW    SW    SW   DIST   DENS                          C  
   cm   cm3/cm3    cm3/cm3    cm3/cm3         g/cm3         ugN/g  ugN/g     %  
------------------------------------------------------------------------------- 
  0-  5 0.215 0.331 0.341 0.116 0.319   1.00   1.68   6.70  11.90   4.21   0.75 
  5- 15 0.215 0.331 0.341 0.116 0.319   1.00   1.68   6.70  11.90   4.21   0.75 
 15- 25 0.215 0.331 0.341 0.116 0.319   1.00   1.68   6.70  11.90   4.21   0.75 
 25- 35 0.181 0.291 0.364 0.110 0.331   0.50   1.61   7.20  12.15   4.32   0.53 
 35- 45 0.181 0.291 0.364 0.110 0.344   0.50   1.61   7.20  12.40   4.44   0.53 
 45- 67 0.096 0.169 0.404 0.073 0.290   0.27   1.51   7.00  10.67   4.47   0.05 
 67- 90 0.096 0.169 0.404 0.073 0.195   0.27   1.51   7.00   7.63   4.53   0.05 
                                                                                
TOT- 90  13.3  21.7  34.0   8.4  25.6  <--cm   -  kg/ha-->  151.4   62.4  51964 
SOIL ALBEDO    : 0.09      EVAPORATION LIMIT : 6.00         MIN. FACTOR  : 1.00 
RUNOFF CURVE # :76.00      DRAINAGE RATE     : 0.60         FERT. FACTOR : 1.00 
                                                                                
 Maize      CULTIVAR :CI0001-P30F35             ECOTYPE :IB0001                 
 P1     : 212.00  P2     : 0.3000  P5     : 925.00                              
 G2     : 954.00  G3     :  7.000  PHINT  : 50.000                              


*SIMULATED CROP AND SOIL STATUS AT MAIN DEVELOPMENT STAGES

 RUN NO.    36     P12/19                  

        CROP GROWTH     BIOMASS         LEAF   CROP N     STRESS      STRESS                                           
   DATE  AGE STAGE        kg/ha    LAI   NUM  kg/ha  %   H2O  Nitr Phos1 Phos2  RSTG                                   
 ------  --- ----------   -----  -----  ----  ---  ---  ----  ----  ----  ----  ----                                   
 19 NOV    0 Start Sim        0   0.00   0.0    0  0.0  0.00  0.00  0.00  0.00     7
 19 DEC    0 Sowing           0   0.00   0.0    0  0.0  0.00  0.00  0.00  0.00     8
 20 DEC    1 Germinate        0   0.00   0.0    0  0.0  0.00  0.00  0.00  0.00     9
 25 DEC    6 Emergence       25   0.00   2.0    1  4.4  0.00  0.01  0.00  0.00     1
  5 JAN   17 End Juveni      68   0.15   6.8    2  3.2  0.13  0.00  0.00  0.00     2
  9 JAN   21 Floral Ini     141   0.29   8.3    5  3.7  0.07  0.00  0.00  0.00     3
  9 FEB   52 75% Silkin    2283   1.12  17.6   50  2.2  0.48  0.00  0.00  0.00     4
 19 FEB   62 Beg Gr Fil    3364   1.03  17.6   50  1.5  0.31  0.00  0.00  0.00     5
 31 MAR  102 End Gr Fil    4265   0.24  17.6   50  1.2  0.77  0.00  0.00  0.00     6
  3 APR  105 Maturity      4265   0.24  17.6   50  1.2  0.00  0.00  0.00  0.00    10
  3 APR  105 Harvest       4265   0.24  17.6   50  1.2  0.00  0.00  0.00  0.00    10


*MAIN GROWTH AND DEVELOPMENT VARIABLES

@     VARIABLE                                         SIMULATED     MEASURED
      --------                                         ---------     --------
      Anthesis day (dap)                                      52          -99
      Physiological maturity day (dap)                       105          -99
      Yield at harvest maturity (kg [dm]/ha)                1577          -99
      Number at maturity (no/m2)                            1590          -99
      Unit wt at maturity (g [dm]/unit)                   0.0992          -99
      Number at maturity (no/unit)                         256.4          -99
      Tops weight at maturity (kg [dm]/ha)                  4265          -99
      By-product produced (stalk) at maturity (kg[dm]/ha    2717          -99
      Leaf area index, maximum                              1.38          -99
      Harvest index at maturity                            0.370          -99
      Grain N at maturity (kg/ha)                             29          -99
      Tops N at maturity (kg/ha)                              50          -99
      Stem N at maturity (kg/ha)                              21          -99
      Grain N at maturity (%)                                1.9          -99
      Tops weight at anthesis (kg [dm]/ha)                  2187          -99
      Tops N at anthesis (kg/ha)                              50          -99
      Leaf number per stem at maturity                     17.59          -99
      Emergence day (dap)                                      6          -99


*ENVIRONMENTAL AND STRESS FACTORS

 |-----Development Phase------|--------------------------------------Environment--------------------------------------|-----------------Stress-----------------|
                              |---------------Average--------------|-----Cumulative-----|--------Count of days--------|          (0=Min, 1=Max Stress)         |
                         Time  Temp  Temp  Temp Solar Photop                Evapo    Pot TMIN TMIN TMAX TMAX TMAX RAIN|----Water----|---Nitrogen--|-Phosphorus-|
                         Span   Max   Min  Mean   Rad  [day]    CO2   Rain  Trans     ET   <    <    >    >    >    >   Photo         Photo         Photo
                         days    邂    邂    邂 MJ/m2     hr    ppm     mm     mm     mm  0邂  2邂 30邂 32邂 34邂  0mm  synth Growth  synth Growth  synth Growth
----------------------------------------------------------------------------------------------------------------------------------------------------------------
 Emergence-End Juvenile    11  33.3  18.4  25.8  17.8   0.00  364.9    9.0    9.1   55.3    0    0   11    9    2    1  0.030  0.120  0.002  0.004  0.000  0.000
 End Juvenil-Floral Init    4  31.9  18.5  25.2  14.8   0.00  364.9    0.0    4.2   16.4    0    0    3    2    1    0  0.000  0.105  0.001  0.004  0.000  0.000
 Floral Init-End Lf Grow   31  33.6  19.2  26.4  18.9   0.00  365.1   27.0   62.0  154.3    0    0   30   28    8    4  0.339  0.464  0.000  0.000  0.000  0.000
 End Lf Grth-Beg Grn Fil   10  31.1  18.8  24.9  15.8   0.00  365.3   29.0   30.4   40.7    0    0    5    3    1    4  0.142  0.287  0.000  0.000  0.000  0.000
 Grain Filling Phase       40  32.4  19.2  25.8  17.4   7.11  365.6   63.3   46.1  186.9    0    0   33   27    4   11  0.725  0.782  0.000  0.000  0.000  0.000


 Planting to Harvest      105  32.7  18.9  25.8  17.6   3.15  365.3  143.1  163.8  496.8    0    0   91   73   16   22  0.393  0.479  0.000  0.001  0.000  0.000
----------------------------------------------------------------------------------------------------------------------------------------------------------------


*Resource Productivity
 Growing season length: 105 days 

 Precipitation during growing season       143.1 mm[rain]
   Dry Matter Productivity                  2.98 kg[DM]/m3[rain]          =   29.8 kg[DM]/ha per mm[rain]
   Yield Productivity                       1.10 kg[grain yield]/m3[rain] =   11.0 kg[yield]/ha per mm[rain]

 Evapotranspiration during growing season  163.8 mm[ET]
   Dry Matter Productivity                  2.60 kg[DM]/m3[ET]            =   26.0 kg[DM]/ha per mm[ET]
   Yield Productivity                       0.96 kg[grain yield]/m3[ET]   =    9.6 kg[yield]/ha per mm[ET]

 Transpiration during growing season        80.4 mm[EP]
   Dry Matter Productivity                  5.30 kg[DM]/m3[EP]            =   53.0 kg[DM]/ha per mm[EP]
   Yield Productivity                       1.96 kg[grain yield]/m3[EP]   =   19.6 kg[yield]/ha per mm[EP]

 N applied during growing season            161. kg[N applied]/ha
   Dry Matter Productivity                  26.5 kg[DM]/kg[N applied]
   Yield Productivity                        9.8 kg[yield]/kg[N applied]

 N uptake during growing season               56 kg[N uptake]/ha
   Dry Matter Productivity                  76.2 kg[DM]/kg[N uptake]
   Yield Productivity                       28.2 kg[yield]/kg[N uptake]

--------------------------------------------------------------------------------------------------------------

                     Maize YIELD :     1577 kg/ha    [Dry weight] 

**************************************************************************************************************
