*SIMULATION OVERVIEW FILE

*DSSAT Cropping System Model Ver. 4.6.1.000 -release      OCT 24, 2017; 10:49:07
                                                                                
*RUN   1        : P04/02                    MZCER046 ANBU2009    1              
 MODEL          : MZCER046 - Maize                                              
 EXPERIMENT     : ANBU2009 MZ  Analisis a침os de bajo rendimiento Buga          
 DATA PATH      : C:\DSSAT46\maize\                                             
 TREATMENT  1   : P04/02                    MZCER046                            
                                                                                
                                                                                
 CROP           : Maize            CULTIVAR : P30F35           ECOTYPE :IB0001  
 STARTING DATE  : MAR  3 2009                                                   
 PLANTING DATE  : APR  2 2009        PLANTS/m2 :  6.2     ROW SPACING :  80.cm  
 WEATHER        : CUNI   2009                                                   
 SOIL           : CCBUGA2017     TEXTURE : CL    -   Suelo Buga MADR Fase I     
 SOIL INITIAL C : DEPTH: 90cm EXTR. H2O: 83.9mm  NO3:  0.0kg/ha  NH4:  0.0kg/ha 
 WATER BALANCE  : RAINFED                                                       
 IRRIGATION     : NOT IRRIGATED                                                 
 NITROGEN BAL.  : SOIL-N & N-UPTAKE SIMULATION; NO N-FIXATION                   
 N-FERTILIZER   :      161 kg/ha IN     5 APPLICATIONS                          
 RESIDUE/MANURE : INITIAL :     0 kg/ha ;       0 kg/ha IN     0 APPLICATIONS   
 ENVIRONM. OPT. : DAYL=    0.00  SRAD=    0.00  TMAX=    0.00  TMIN=    0.00    
                  RAIN=    0.00  CO2 =    0.00  DEW =    0.00  WIND=    0.00    
 SIMULATION OPT : WATER   :Y  NITROGEN:Y  N-FIX:N  PHOSPH :N  PESTS  :N         
                  PHOTO   :C  ET      :R  INFIL:S  HYDROL :R  SOM    :G         
                  CO2 387ppm  NSWIT   :1  EVAP :S  SOIL   :2  STEMP  :D         
 MANAGEMENT OPT : PLANTING:R  IRRIG   :N  FERT :D  RESIDUE:R  HARVEST:M         
                  WEATHER :M  TILLAGE :N                                        
                                                                                
*SUMMARY OF SOIL AND GENETIC INPUT PARAMETERS                                   
                                                                                
   SOIL LOWER UPPER   SAT  EXTR  INIT   ROOT   BULK     pH    NO3    NH4    ORG 
  DEPTH LIMIT LIMIT    SW    SW    SW   DIST   DENS                          C  
   cm   cm3/cm3    cm3/cm3    cm3/cm3         g/cm3         ugN/g  ugN/g     %  
------------------------------------------------------------------------------- 
  0-  5 0.215 0.331 0.341 0.116 0.331   1.00   1.68   6.70   0.00   0.00   0.75 
  5- 15 0.215 0.331 0.341 0.116 0.331   1.00   1.68   6.70   0.00   0.00   0.75 
 15- 25 0.215 0.331 0.341 0.116 0.331   1.00   1.68   6.70   0.00   0.00   0.75 
 25- 35 0.181 0.291 0.364 0.110 0.291   0.50   1.61   7.20   0.00   0.00   0.53 
 35- 45 0.181 0.291 0.364 0.110 0.291   0.50   1.61   7.20   0.00   0.00   0.53 
 45- 67 0.096 0.169 0.404 0.073 0.169   0.27   1.51   7.00   0.00   0.00   0.05 
 67- 90 0.096 0.169 0.404 0.073 0.169   0.27   1.51   7.00   0.00   0.00   0.05 
                                                                                
TOT- 90  13.3  21.7  34.0   8.4  21.7  <--cm   -  kg/ha-->    0.0    0.0  51964 
SOIL ALBEDO    : 0.09      EVAPORATION LIMIT : 6.00         MIN. FACTOR  : 1.00 
RUNOFF CURVE # :76.00      DRAINAGE RATE     : 0.60         FERT. FACTOR : 1.00 
                                                                                
 Maize      CULTIVAR :CI0001-P30F35             ECOTYPE :IB0001                 
 P1     : 200.00  P2     : 0.3000  P5     : 925.00                              
 G2     : 954.00  G3     :  7.000  PHINT  : 50.000                              


*SIMULATED CROP AND SOIL STATUS AT MAIN DEVELOPMENT STAGES

 RUN NO.     1     P04/02                  

        CROP GROWTH     BIOMASS         LEAF   CROP N     STRESS      STRESS                                           
   DATE  AGE STAGE        kg/ha    LAI   NUM  kg/ha  %   H2O  Nitr Phos1 Phos2  RSTG                                   
 ------  --- ----------   -----  -----  ----  ---  ---  ----  ----  ----  ----  ----                                   
  3 MAR    0 Start Sim        0   0.00   0.0    0  0.0  0.00  0.00  0.00  0.00     7
  2 APR    0 Sowing           0   0.00   0.0    0  0.0  0.00  0.00  0.00  0.00     8
  3 APR    1 Germinate        0   0.00   0.0    0  0.0  0.00  0.00  0.00  0.00     9
  8 APR    6 Emergence       25   0.00   2.0    1  4.4  0.00  0.01  0.00  0.00     1
 18 APR   16 End Juveni      44   0.10   6.3    1  3.3  0.00  0.00  0.00  0.00     2
 24 APR   22 Floral Ini     135   0.28   8.5    5  3.6  0.00  0.00  0.00  0.00     3
 28 MAY   56 75% Silkin    3864   1.99  17.9   79  2.0  0.21  0.06  0.00  0.00     4
  7 JUN   66 Beg Gr Fil    5766   1.94  17.9   82  1.4  0.10  0.00  0.00  0.00     5
 21 JUL  110 End Gr Fil   12543   0.99  17.9  160  1.3  0.10  0.00  0.00  0.00     6
 23 JUL  112 Maturity     12543   0.99  17.9  160  1.3  0.00  0.00  0.00  0.00    10
 23 JUL  112 Harvest      12543   0.99  17.9  160  1.3  0.00  0.00  0.00  0.00    10


*MAIN GROWTH AND DEVELOPMENT VARIABLES

@     VARIABLE                                         SIMULATED     MEASURED
      --------                                         ---------     --------
      Anthesis day (dap)                                      56          -99
      Physiological maturity day (dap)                       112          -99
      Yield at harvest maturity (kg [dm]/ha)                7035          -99
      Number at maturity (no/m2)                            2362          -99
      Unit wt at maturity (g [dm]/unit)                   0.2978          -99
      Number at maturity (no/unit)                         381.0          -99
      Tops weight at maturity (kg [dm]/ha)                 12543          -99
      By-product produced (stalk) at maturity (kg[dm]/ha    5548          -99
      Leaf area index, maximum                              2.29          -99
      Harvest index at maturity                            0.561          -99
      Grain N at maturity (kg/ha)                            121          -99
      Tops N at maturity (kg/ha)                             160          -99
      Stem N at maturity (kg/ha)                              39          -99
      Grain N at maturity (%)                                1.7          -99
      Tops weight at anthesis (kg [dm]/ha)                  3809          -99
      Tops N at anthesis (kg/ha)                              63          -99
      Leaf number per stem at maturity                     17.88          -99
      Emergence day (dap)                                      6          -99


*ENVIRONMENTAL AND STRESS FACTORS

 |-----Development Phase------|--------------------------------------Environment--------------------------------------|-----------------Stress-----------------|
                              |---------------Average--------------|-----Cumulative-----|--------Count of days--------|          (0=Min, 1=Max Stress)         |
                         Time  Temp  Temp  Temp Solar Photop                Evapo    Pot TMIN TMIN TMAX TMAX TMAX RAIN|----Water----|---Nitrogen--|-Phosphorus-|
                         Span   Max   Min  Mean   Rad  [day]    CO2   Rain  Trans     ET   <    <    >    >    >    >   Photo         Photo         Photo
                         days    邂    邂    邂 MJ/m2     hr    ppm     mm     mm     mm  0邂  2邂 30邂 32邂 34邂  0mm  synth Growth  synth Growth  synth Growth
----------------------------------------------------------------------------------------------------------------------------------------------------------------
 Emergence-End Juvenile    10  31.1  19.4  25.3  17.7  21.42  386.8   18.3   24.9   50.2    0    0    9    2    0    6  0.000  0.000  0.002  0.005  0.000  0.000
 End Juvenil-Floral Init    6  31.3  20.2  25.7  12.9  24.00  386.9    0.0    7.4   21.6    0    0    4    1    0    0  0.000  0.000  0.000  0.000  0.000  0.000
 Floral Init-End Lf Grow   34  31.5  18.9  25.2  16.5  24.00  387.0   61.2  104.6  142.5    0    0   26   10    2   14  0.117  0.192  0.023  0.057  0.000  0.000
 End Lf Grth-Beg Grn Fil   10  31.5  19.3  25.4  17.1  24.00  387.1   70.9   38.0   42.4    0    0    6    4    1    6  0.110  0.174  0.009  0.024  0.000  0.000
 Grain Filling Phase       44  30.0  18.4  24.2  15.9  24.00  387.3  134.3  148.5  170.3    0    0   18    5    0   12  0.060  0.087  0.000  0.000  0.000  0.000


 Planting to Harvest      112  30.8  18.9  24.9  16.5  23.38  387.1  303.7  344.0  473.9    0    0   69   23    3   40  0.075  0.115  0.008  0.020  0.000  0.000
----------------------------------------------------------------------------------------------------------------------------------------------------------------


*Resource Productivity
 Growing season length: 112 days 

 Precipitation during growing season       303.7 mm[rain]
   Dry Matter Productivity                  4.13 kg[DM]/m3[rain]          =   41.3 kg[DM]/ha per mm[rain]
   Yield Productivity                       2.32 kg[grain yield]/m3[rain] =   23.2 kg[yield]/ha per mm[rain]

 Evapotranspiration during growing season  344.0 mm[ET]
   Dry Matter Productivity                  3.65 kg[DM]/m3[ET]            =   36.5 kg[DM]/ha per mm[ET]
   Yield Productivity                       2.05 kg[grain yield]/m3[ET]   =   20.5 kg[yield]/ha per mm[ET]

 Transpiration during growing season       211.9 mm[EP]
   Dry Matter Productivity                  5.92 kg[DM]/m3[EP]            =   59.2 kg[DM]/ha per mm[EP]
   Yield Productivity                       3.32 kg[grain yield]/m3[EP]   =   33.2 kg[yield]/ha per mm[EP]

 N applied during growing season            161. kg[N applied]/ha
   Dry Matter Productivity                  77.9 kg[DM]/kg[N applied]
   Yield Productivity                       43.7 kg[yield]/kg[N applied]

 N uptake during growing season              175 kg[N uptake]/ha
   Dry Matter Productivity                  71.7 kg[DM]/kg[N uptake]
   Yield Productivity                       40.2 kg[yield]/kg[N uptake]

--------------------------------------------------------------------------------------------------------------

                     Maize YIELD :     7035 kg/ha    [Dry weight] 

**************************************************************************************************************

*DSSAT Cropping System Model Ver. 4.6.1.000 -release      OCT 24, 2017; 10:49:07
                                                                                
*RUN   2        : P04/07                    MZCER046 ANBU2009    2              
 MODEL          : MZCER046 - Maize                                              
 EXPERIMENT     : ANBU2009 MZ  Analisis a침os de bajo rendimiento Buga          
 DATA PATH      : C:\DSSAT46\maize\                                             
 TREATMENT  2   : P04/07                    MZCER046                            
                                                                                
                                                                                
 CROP           : Maize            CULTIVAR : P30F35           ECOTYPE :IB0001  
 STARTING DATE  : MAR  8 2009                                                   
 PLANTING DATE  : APR  7 2009        PLANTS/m2 :  6.2     ROW SPACING :  80.cm  
 WEATHER        : CUNI   2009                                                   
 SOIL           : CCBUGA2017     TEXTURE : CL    -   Suelo Buga MADR Fase I     
 SOIL INITIAL C : DEPTH: 90cm EXTR. H2O: 83.9mm  NO3:  0.0kg/ha  NH4:  0.0kg/ha 
 WATER BALANCE  : RAINFED                                                       
 IRRIGATION     : NOT IRRIGATED                                                 
 NITROGEN BAL.  : SOIL-N & N-UPTAKE SIMULATION; NO N-FIXATION                   
 N-FERTILIZER   :      161 kg/ha IN     5 APPLICATIONS                          
 RESIDUE/MANURE : INITIAL :     0 kg/ha ;       0 kg/ha IN     0 APPLICATIONS   
 ENVIRONM. OPT. : DAYL=    0.00  SRAD=    0.00  TMAX=    0.00  TMIN=    0.00    
                  RAIN=    0.00  CO2 =    0.00  DEW =    0.00  WIND=    0.00    
 SIMULATION OPT : WATER   :Y  NITROGEN:Y  N-FIX:N  PHOSPH :N  PESTS  :N         
                  PHOTO   :C  ET      :R  INFIL:S  HYDROL :R  SOM    :G         
                  CO2 387ppm  NSWIT   :1  EVAP :S  SOIL   :2  STEMP  :D         
 MANAGEMENT OPT : PLANTING:R  IRRIG   :N  FERT :D  RESIDUE:R  HARVEST:M         
                  WEATHER :M  TILLAGE :N                                        
                                                                                
*SUMMARY OF SOIL AND GENETIC INPUT PARAMETERS                                   
                                                                                
   SOIL LOWER UPPER   SAT  EXTR  INIT   ROOT   BULK     pH    NO3    NH4    ORG 
  DEPTH LIMIT LIMIT    SW    SW    SW   DIST   DENS                          C  
   cm   cm3/cm3    cm3/cm3    cm3/cm3         g/cm3         ugN/g  ugN/g     %  
------------------------------------------------------------------------------- 
  0-  5 0.215 0.331 0.341 0.116 0.331   1.00   1.68   6.70   0.00   0.00   0.75 
  5- 15 0.215 0.331 0.341 0.116 0.331   1.00   1.68   6.70   0.00   0.00   0.75 
 15- 25 0.215 0.331 0.341 0.116 0.331   1.00   1.68   6.70   0.00   0.00   0.75 
 25- 35 0.181 0.291 0.364 0.110 0.291   0.50   1.61   7.20   0.00   0.00   0.53 
 35- 45 0.181 0.291 0.364 0.110 0.291   0.50   1.61   7.20   0.00   0.00   0.53 
 45- 67 0.096 0.169 0.404 0.073 0.169   0.27   1.51   7.00   0.00   0.00   0.05 
 67- 90 0.096 0.169 0.404 0.073 0.169   0.27   1.51   7.00   0.00   0.00   0.05 
                                                                                
TOT- 90  13.3  21.7  34.0   8.4  21.7  <--cm   -  kg/ha-->    0.0    0.0  51964 
SOIL ALBEDO    : 0.09      EVAPORATION LIMIT : 6.00         MIN. FACTOR  : 1.00 
RUNOFF CURVE # :76.00      DRAINAGE RATE     : 0.60         FERT. FACTOR : 1.00 
                                                                                
 Maize      CULTIVAR :CI0001-P30F35             ECOTYPE :IB0001                 
 P1     : 200.00  P2     : 0.3000  P5     : 925.00                              
 G2     : 954.00  G3     :  7.000  PHINT  : 50.000                              


*SIMULATED CROP AND SOIL STATUS AT MAIN DEVELOPMENT STAGES

 RUN NO.     2     P04/07                  

        CROP GROWTH     BIOMASS         LEAF   CROP N     STRESS      STRESS                                           
   DATE  AGE STAGE        kg/ha    LAI   NUM  kg/ha  %   H2O  Nitr Phos1 Phos2  RSTG                                   
 ------  --- ----------   -----  -----  ----  ---  ---  ----  ----  ----  ----  ----                                   
  8 MAR    0 Start Sim        0   0.00   0.0    0  0.0  0.00  0.00  0.00  0.00     7
  7 APR    0 Sowing           0   0.00   0.0    0  0.0  0.00  0.00  0.00  0.00     8
  8 APR    1 Germinate        0   0.00   0.0    0  0.0  0.00  0.00  0.00  0.00     9
 13 APR    6 Emergence       25   0.00   2.1    1  4.4  0.00  0.01  0.00  0.00     1
 23 APR   16 End Juveni      49   0.11   6.3    2  3.4  0.00  0.00  0.00  0.00     2
 29 APR   22 Floral Ini     178   0.35   8.6    6  3.6  0.00  0.00  0.00  0.00     3
  3 JUN   57 75% Silkin    4392   2.18  18.3   86  2.0  0.18  0.11  0.00  0.00     4
 13 JUN   67 Beg Gr Fil    6319   2.15  18.3   88  1.4  0.05  0.00  0.00  0.00     5
 26 JUL  110 End Gr Fil   12866   1.09  18.3  164  1.3  0.21  0.00  0.00  0.00     6
 29 JUL  113 Maturity     12866   1.09  18.3  164  1.3  0.89  0.00  0.00  0.00    10
 29 JUL  113 Harvest      12866   1.09  18.3  164  1.3  0.00  0.00  0.00  0.00    10


*MAIN GROWTH AND DEVELOPMENT VARIABLES

@     VARIABLE                                         SIMULATED     MEASURED
      --------                                         ---------     --------
      Anthesis day (dap)                                      57          -99
      Physiological maturity day (dap)                       113          -99
      Yield at harvest maturity (kg [dm]/ha)                7036          -99
      Number at maturity (no/m2)                            2548          -99
      Unit wt at maturity (g [dm]/unit)                   0.2761          -99
      Number at maturity (no/unit)                         411.0          -99
      Tops weight at maturity (kg [dm]/ha)                 12866          -99
      By-product produced (stalk) at maturity (kg[dm]/ha    5872          -99
      Leaf area index, maximum                              2.20          -99
      Harvest index at maturity                            0.547          -99
      Grain N at maturity (kg/ha)                            122          -99
      Tops N at maturity (kg/ha)                             164          -99
      Stem N at maturity (kg/ha)                              42          -99
      Grain N at maturity (%)                                1.7          -99
      Tops weight at anthesis (kg [dm]/ha)                  4175          -99
      Tops N at anthesis (kg/ha)                              84          -99
      Leaf number per stem at maturity                     18.26          -99
      Emergence day (dap)                                      6          -99


*ENVIRONMENTAL AND STRESS FACTORS

 |-----Development Phase------|--------------------------------------Environment--------------------------------------|-----------------Stress-----------------|
                              |---------------Average--------------|-----Cumulative-----|--------Count of days--------|          (0=Min, 1=Max Stress)         |
                         Time  Temp  Temp  Temp Solar Photop                Evapo    Pot TMIN TMIN TMAX TMAX TMAX RAIN|----Water----|---Nitrogen--|-Phosphorus-|
                         Span   Max   Min  Mean   Rad  [day]    CO2   Rain  Trans     ET   <    <    >    >    >    >   Photo         Photo         Photo
                         days    邂    邂    邂 MJ/m2     hr    ppm     mm     mm     mm  0邂  2邂 30邂 32邂 34邂  0mm  synth Growth  synth Growth  synth Growth
----------------------------------------------------------------------------------------------------------------------------------------------------------------
 Emergence-End Juvenile    10  31.9  19.5  25.7  16.8  23.68  386.9    8.2   15.9   47.9    0    0    9    3    0    2  0.000  0.000  0.002  0.004  0.000  0.000
 End Juvenil-Floral Init    6  32.7  19.7  26.2  17.4  24.00  386.9   14.4    9.1   29.4    0    0    4    3    2    2  0.000  0.000  0.000  0.000  0.000  0.000
 Floral Init-End Lf Grow   35  31.2  18.8  25.0  16.1  24.00  387.0   78.0  116.8  142.6    0    0   25    9    0   15  0.085  0.165  0.043  0.107  0.000  0.000
 End Lf Grth-Beg Grn Fil   10  30.9  19.6  25.3  16.8  24.00  387.1   90.7   39.1   41.3    0    0    6    2    1    7  0.045  0.097  0.000  0.000  0.000  0.000
 Grain Filling Phase       43  30.1  18.2  24.2  16.1  24.00  387.3   93.3  135.6  167.9    0    0   20    6    0    9  0.150  0.190  0.000  0.000  0.000  0.000


 Planting to Harvest      113  30.9  18.8  24.9  16.3  23.72  387.1  303.7  334.8  469.0    0    0   71   26    3   40  0.110  0.155  0.013  0.033  0.000  0.000
----------------------------------------------------------------------------------------------------------------------------------------------------------------


*Resource Productivity
 Growing season length: 113 days 

 Precipitation during growing season       303.7 mm[rain]
   Dry Matter Productivity                  4.24 kg[DM]/m3[rain]          =   42.4 kg[DM]/ha per mm[rain]
   Yield Productivity                       2.32 kg[grain yield]/m3[rain] =   23.2 kg[yield]/ha per mm[rain]

 Evapotranspiration during growing season  334.8 mm[ET]
   Dry Matter Productivity                  3.84 kg[DM]/m3[ET]            =   38.4 kg[DM]/ha per mm[ET]
   Yield Productivity                       2.10 kg[grain yield]/m3[ET]   =   21.0 kg[yield]/ha per mm[ET]

 Transpiration during growing season       209.0 mm[EP]
   Dry Matter Productivity                  6.16 kg[DM]/m3[EP]            =   61.6 kg[DM]/ha per mm[EP]
   Yield Productivity                       3.37 kg[grain yield]/m3[EP]   =   33.7 kg[yield]/ha per mm[EP]

 N applied during growing season            161. kg[N applied]/ha
   Dry Matter Productivity                  79.9 kg[DM]/kg[N applied]
   Yield Productivity                       43.7 kg[yield]/kg[N applied]

 N uptake during growing season              178 kg[N uptake]/ha
   Dry Matter Productivity                  72.3 kg[DM]/kg[N uptake]
   Yield Productivity                       39.5 kg[yield]/kg[N uptake]

--------------------------------------------------------------------------------------------------------------

                     Maize YIELD :     7036 kg/ha    [Dry weight] 

**************************************************************************************************************

*DSSAT Cropping System Model Ver. 4.6.1.000 -release      OCT 24, 2017; 10:49:07
                                                                                
*RUN   3        : P04/12                    MZCER046 ANBU2009    3              
 MODEL          : MZCER046 - Maize                                              
 EXPERIMENT     : ANBU2009 MZ  Analisis a침os de bajo rendimiento Buga          
 DATA PATH      : C:\DSSAT46\maize\                                             
 TREATMENT  3   : P04/12                    MZCER046                            
                                                                                
                                                                                
 CROP           : Maize            CULTIVAR : P30F35           ECOTYPE :IB0001  
 STARTING DATE  : MAR 13 2009                                                   
 PLANTING DATE  : APR 12 2009        PLANTS/m2 :  6.2     ROW SPACING :  80.cm  
 WEATHER        : CUNI   2009                                                   
 SOIL           : CCBUGA2017     TEXTURE : CL    -   Suelo Buga MADR Fase I     
 SOIL INITIAL C : DEPTH: 90cm EXTR. H2O: 83.9mm  NO3:  0.0kg/ha  NH4:  0.0kg/ha 
 WATER BALANCE  : RAINFED                                                       
 IRRIGATION     : NOT IRRIGATED                                                 
 NITROGEN BAL.  : SOIL-N & N-UPTAKE SIMULATION; NO N-FIXATION                   
 N-FERTILIZER   :      161 kg/ha IN     5 APPLICATIONS                          
 RESIDUE/MANURE : INITIAL :     0 kg/ha ;       0 kg/ha IN     0 APPLICATIONS   
 ENVIRONM. OPT. : DAYL=    0.00  SRAD=    0.00  TMAX=    0.00  TMIN=    0.00    
                  RAIN=    0.00  CO2 =    0.00  DEW =    0.00  WIND=    0.00    
 SIMULATION OPT : WATER   :Y  NITROGEN:Y  N-FIX:N  PHOSPH :N  PESTS  :N         
                  PHOTO   :C  ET      :R  INFIL:S  HYDROL :R  SOM    :G         
                  CO2 387ppm  NSWIT   :1  EVAP :S  SOIL   :2  STEMP  :D         
 MANAGEMENT OPT : PLANTING:R  IRRIG   :N  FERT :D  RESIDUE:R  HARVEST:M         
                  WEATHER :M  TILLAGE :N                                        
                                                                                
*SUMMARY OF SOIL AND GENETIC INPUT PARAMETERS                                   
                                                                                
   SOIL LOWER UPPER   SAT  EXTR  INIT   ROOT   BULK     pH    NO3    NH4    ORG 
  DEPTH LIMIT LIMIT    SW    SW    SW   DIST   DENS                          C  
   cm   cm3/cm3    cm3/cm3    cm3/cm3         g/cm3         ugN/g  ugN/g     %  
------------------------------------------------------------------------------- 
  0-  5 0.215 0.331 0.341 0.116 0.331   1.00   1.68   6.70   0.00   0.00   0.75 
  5- 15 0.215 0.331 0.341 0.116 0.331   1.00   1.68   6.70   0.00   0.00   0.75 
 15- 25 0.215 0.331 0.341 0.116 0.331   1.00   1.68   6.70   0.00   0.00   0.75 
 25- 35 0.181 0.291 0.364 0.110 0.291   0.50   1.61   7.20   0.00   0.00   0.53 
 35- 45 0.181 0.291 0.364 0.110 0.291   0.50   1.61   7.20   0.00   0.00   0.53 
 45- 67 0.096 0.169 0.404 0.073 0.169   0.27   1.51   7.00   0.00   0.00   0.05 
 67- 90 0.096 0.169 0.404 0.073 0.169   0.27   1.51   7.00   0.00   0.00   0.05 
                                                                                
TOT- 90  13.3  21.7  34.0   8.4  21.7  <--cm   -  kg/ha-->    0.0    0.0  51964 
SOIL ALBEDO    : 0.09      EVAPORATION LIMIT : 6.00         MIN. FACTOR  : 1.00 
RUNOFF CURVE # :76.00      DRAINAGE RATE     : 0.60         FERT. FACTOR : 1.00 
                                                                                
 Maize      CULTIVAR :CI0001-P30F35             ECOTYPE :IB0001                 
 P1     : 200.00  P2     : 0.3000  P5     : 925.00                              
 G2     : 954.00  G3     :  7.000  PHINT  : 50.000                              


*SIMULATED CROP AND SOIL STATUS AT MAIN DEVELOPMENT STAGES

 RUN NO.     3     P04/12                  

        CROP GROWTH     BIOMASS         LEAF   CROP N     STRESS      STRESS                                           
   DATE  AGE STAGE        kg/ha    LAI   NUM  kg/ha  %   H2O  Nitr Phos1 Phos2  RSTG                                   
 ------  --- ----------   -----  -----  ----  ---  ---  ----  ----  ----  ----  ----                                   
 13 MAR    0 Start Sim        0   0.00   0.0    0  0.0  0.00  0.00  0.00  0.00     7
 12 APR    0 Sowing           0   0.00   0.0    0  0.0  0.00  0.00  0.00  0.00     8
 13 APR    1 Germinate        0   0.00   0.0    0  0.0  0.00  0.00  0.00  0.00     9
 18 APR    6 Emergence       25   0.00   2.1    1  4.4  0.00  0.01  0.00  0.00     1
 28 APR   16 End Juveni      50   0.11   6.4    2  3.6  0.00  0.00  0.00  0.00     2
  5 MAY   23 Floral Ini     135   0.28   8.8    5  3.6  0.00  0.00  0.00  0.00     3
  9 JUN   58 75% Silkin    4733   2.27  18.6   94  2.0  0.11  0.17  0.00  0.00     4
 20 JUN   69 Beg Gr Fil    6802   2.27  18.6   98  1.4  0.00  0.00  0.00  0.00     5
  2 AUG  112 End Gr Fil   12311   1.12  18.6  154  1.2  0.36  0.00  0.00  0.00     6
  4 AUG  114 Maturity     12311   1.12  18.6  154  1.2  0.95  0.00  0.00  0.00    10
  4 AUG  114 Harvest      12311   1.12  18.6  154  1.2  0.00  0.00  0.00  0.00    10


*MAIN GROWTH AND DEVELOPMENT VARIABLES

@     VARIABLE                                         SIMULATED     MEASURED
      --------                                         ---------     --------
      Anthesis day (dap)                                      58          -99
      Physiological maturity day (dap)                       114          -99
      Yield at harvest maturity (kg [dm]/ha)                6358          -99
      Number at maturity (no/m2)                            2525          -99
      Unit wt at maturity (g [dm]/unit)                   0.2518          -99
      Number at maturity (no/unit)                         407.3          -99
      Tops weight at maturity (kg [dm]/ha)                 12311          -99
      By-product produced (stalk) at maturity (kg[dm]/ha    5997          -99
      Leaf area index, maximum                              2.27          -99
      Harvest index at maturity                            0.516          -99
      Grain N at maturity (kg/ha)                            111          -99
      Tops N at maturity (kg/ha)                             154          -99
      Stem N at maturity (kg/ha)                              42          -99
      Grain N at maturity (%)                                1.8          -99
      Tops weight at anthesis (kg [dm]/ha)                  4513          -99
      Tops N at anthesis (kg/ha)                              91          -99
      Leaf number per stem at maturity                     18.56          -99
      Emergence day (dap)                                      6          -99


*ENVIRONMENTAL AND STRESS FACTORS

 |-----Development Phase------|--------------------------------------Environment--------------------------------------|-----------------Stress-----------------|
                              |---------------Average--------------|-----Cumulative-----|--------Count of days--------|          (0=Min, 1=Max Stress)         |
                         Time  Temp  Temp  Temp Solar Photop                Evapo    Pot TMIN TMIN TMAX TMAX TMAX RAIN|----Water----|---Nitrogen--|-Phosphorus-|
                         Span   Max   Min  Mean   Rad  [day]    CO2   Rain  Trans     ET   <    <    >    >    >    >   Photo         Photo         Photo
                         days    邂    邂    邂 MJ/m2     hr    ppm     mm     mm     mm  0邂  2邂 30邂 32邂 34邂  0mm  synth Growth  synth Growth  synth Growth
----------------------------------------------------------------------------------------------------------------------------------------------------------------
 Emergence-End Juvenile    10  32.4  20.0  26.2  16.1  24.00  386.9    8.9   10.5   46.1    0    0    8    4    2    1  0.000  0.000  0.002  0.004  0.000  0.000
 End Juvenil-Floral Init    7  29.7  19.9  24.8  13.5  24.00  386.9   42.1   21.9   26.0    0    0    2    1    0    7  0.000  0.000  0.000  0.001  0.000  0.000
 Floral Init-End Lf Grow   35  31.6  18.8  25.2  16.8  24.00  387.1  115.6  116.2  149.8    0    0   28   10    1   13  0.059  0.109  0.083  0.169  0.000  0.000
 End Lf Grth-Beg Grn Fil   11  29.6  18.9  24.3  15.3  24.00  387.2   37.2   40.2   40.4    0    0    3    0    0    5  0.000  0.000  0.000  0.000  0.000  0.000
 Grain Filling Phase       43  30.6  18.1  24.3  16.3  24.00  387.3   72.6  117.6  171.1    0    0   23   11    1    7  0.297  0.343  0.000  0.000  0.000  0.000


 Planting to Harvest      114  31.1  18.7  24.9  16.4  23.94  387.2  284.6  323.5  478.3    0    0   72   30    6   35  0.146  0.179  0.026  0.052  0.000  0.000
----------------------------------------------------------------------------------------------------------------------------------------------------------------


*Resource Productivity
 Growing season length: 114 days 

 Precipitation during growing season       284.6 mm[rain]
   Dry Matter Productivity                  4.33 kg[DM]/m3[rain]          =   43.3 kg[DM]/ha per mm[rain]
   Yield Productivity                       2.23 kg[grain yield]/m3[rain] =   22.3 kg[yield]/ha per mm[rain]

 Evapotranspiration during growing season  323.5 mm[ET]
   Dry Matter Productivity                  3.81 kg[DM]/m3[ET]            =   38.1 kg[DM]/ha per mm[ET]
   Yield Productivity                       1.97 kg[grain yield]/m3[ET]   =   19.7 kg[yield]/ha per mm[ET]

 Transpiration during growing season       200.1 mm[EP]
   Dry Matter Productivity                  6.15 kg[DM]/m3[EP]            =   61.5 kg[DM]/ha per mm[EP]
   Yield Productivity                       3.18 kg[grain yield]/m3[EP]   =   31.8 kg[yield]/ha per mm[EP]

 N applied during growing season            161. kg[N applied]/ha
   Dry Matter Productivity                  76.5 kg[DM]/kg[N applied]
   Yield Productivity                       39.5 kg[yield]/kg[N applied]

 N uptake during growing season              167 kg[N uptake]/ha
   Dry Matter Productivity                  73.7 kg[DM]/kg[N uptake]
   Yield Productivity                       38.1 kg[yield]/kg[N uptake]

--------------------------------------------------------------------------------------------------------------

                     Maize YIELD :     6358 kg/ha    [Dry weight] 

**************************************************************************************************************

*DSSAT Cropping System Model Ver. 4.6.1.000 -release      OCT 24, 2017; 10:49:07
                                                                                
*RUN   4        : P04/17                    MZCER046 ANBU2009    4              
 MODEL          : MZCER046 - Maize                                              
 EXPERIMENT     : ANBU2009 MZ  Analisis a침os de bajo rendimiento Buga          
 DATA PATH      : C:\DSSAT46\maize\                                             
 TREATMENT  4   : P04/17                    MZCER046                            
                                                                                
                                                                                
 CROP           : Maize            CULTIVAR : P30F35           ECOTYPE :IB0001  
 STARTING DATE  : MAR 18 2009                                                   
 PLANTING DATE  : APR 17 2009        PLANTS/m2 :  6.2     ROW SPACING :  80.cm  
 WEATHER        : CUNI   2009                                                   
 SOIL           : CCBUGA2017     TEXTURE : CL    -   Suelo Buga MADR Fase I     
 SOIL INITIAL C : DEPTH: 90cm EXTR. H2O: 83.9mm  NO3:  0.0kg/ha  NH4:  0.0kg/ha 
 WATER BALANCE  : RAINFED                                                       
 IRRIGATION     : NOT IRRIGATED                                                 
 NITROGEN BAL.  : SOIL-N & N-UPTAKE SIMULATION; NO N-FIXATION                   
 N-FERTILIZER   :      161 kg/ha IN     5 APPLICATIONS                          
 RESIDUE/MANURE : INITIAL :     0 kg/ha ;       0 kg/ha IN     0 APPLICATIONS   
 ENVIRONM. OPT. : DAYL=    0.00  SRAD=    0.00  TMAX=    0.00  TMIN=    0.00    
                  RAIN=    0.00  CO2 =    0.00  DEW =    0.00  WIND=    0.00    
 SIMULATION OPT : WATER   :Y  NITROGEN:Y  N-FIX:N  PHOSPH :N  PESTS  :N         
                  PHOTO   :C  ET      :R  INFIL:S  HYDROL :R  SOM    :G         
                  CO2 387ppm  NSWIT   :1  EVAP :S  SOIL   :2  STEMP  :D         
 MANAGEMENT OPT : PLANTING:R  IRRIG   :N  FERT :D  RESIDUE:R  HARVEST:M         
                  WEATHER :M  TILLAGE :N                                        
                                                                                
*SUMMARY OF SOIL AND GENETIC INPUT PARAMETERS                                   
                                                                                
   SOIL LOWER UPPER   SAT  EXTR  INIT   ROOT   BULK     pH    NO3    NH4    ORG 
  DEPTH LIMIT LIMIT    SW    SW    SW   DIST   DENS                          C  
   cm   cm3/cm3    cm3/cm3    cm3/cm3         g/cm3         ugN/g  ugN/g     %  
------------------------------------------------------------------------------- 
  0-  5 0.215 0.331 0.341 0.116 0.331   1.00   1.68   6.70   0.00   0.00   0.75 
  5- 15 0.215 0.331 0.341 0.116 0.331   1.00   1.68   6.70   0.00   0.00   0.75 
 15- 25 0.215 0.331 0.341 0.116 0.331   1.00   1.68   6.70   0.00   0.00   0.75 
 25- 35 0.181 0.291 0.364 0.110 0.291   0.50   1.61   7.20   0.00   0.00   0.53 
 35- 45 0.181 0.291 0.364 0.110 0.291   0.50   1.61   7.20   0.00   0.00   0.53 
 45- 67 0.096 0.169 0.404 0.073 0.169   0.27   1.51   7.00   0.00   0.00   0.05 
 67- 90 0.096 0.169 0.404 0.073 0.169   0.27   1.51   7.00   0.00   0.00   0.05 
                                                                                
TOT- 90  13.3  21.7  34.0   8.4  21.7  <--cm   -  kg/ha-->    0.0    0.0  51964 
SOIL ALBEDO    : 0.09      EVAPORATION LIMIT : 6.00         MIN. FACTOR  : 1.00 
RUNOFF CURVE # :76.00      DRAINAGE RATE     : 0.60         FERT. FACTOR : 1.00 
                                                                                
 Maize      CULTIVAR :CI0001-P30F35             ECOTYPE :IB0001                 
 P1     : 200.00  P2     : 0.3000  P5     : 925.00                              
 G2     : 954.00  G3     :  7.000  PHINT  : 50.000                              


*SIMULATED CROP AND SOIL STATUS AT MAIN DEVELOPMENT STAGES

 RUN NO.     4     P04/17                  

        CROP GROWTH     BIOMASS         LEAF   CROP N     STRESS      STRESS                                           
   DATE  AGE STAGE        kg/ha    LAI   NUM  kg/ha  %   H2O  Nitr Phos1 Phos2  RSTG                                   
 ------  --- ----------   -----  -----  ----  ---  ---  ----  ----  ----  ----  ----                                   
 18 MAR    0 Start Sim        0   0.00   0.0    0  0.0  0.00  0.00  0.00  0.00     7
 17 APR    0 Sowing           0   0.00   0.0    0  0.0  0.00  0.00  0.00  0.00     8
 18 APR    1 Germinate        0   0.00   0.0    0  0.0  0.00  0.00  0.00  0.00     9
 23 APR    6 Emergence       25   0.00   2.0    1  4.4  0.00  0.01  0.00  0.00     1
  4 MAY   17 End Juveni      45   0.10   6.6    2  3.5  0.00  0.00  0.00  0.00     2
 11 MAY   24 Floral Ini     194   0.38   9.1    7  3.6  0.00  0.00  0.00  0.00     3
 16 JUN   60 75% Silkin    5012   2.64  19.3   99  2.0  0.02  0.10  0.00  0.00     4
 27 JUN   71 Beg Gr Fil    7071   2.61  19.3  100  1.4  0.00  0.00  0.00  0.00     5
  8 AUG  113 End Gr Fil   11676   0.99  19.3  138  1.2  0.49  0.00  0.00  0.00     6
 11 AUG  116 Maturity     11676   0.99  19.3  138  1.2  0.94  0.00  0.00  0.00    10
 11 AUG  116 Harvest      11676   0.99  19.3  138  1.2  0.00  0.00  0.00  0.00    10


*MAIN GROWTH AND DEVELOPMENT VARIABLES

@     VARIABLE                                         SIMULATED     MEASURED
      --------                                         ---------     --------
      Anthesis day (dap)                                      60          -99
      Physiological maturity day (dap)                       116          -99
      Yield at harvest maturity (kg [dm]/ha)                5772          -99
      Number at maturity (no/m2)                            2552          -99
      Unit wt at maturity (g [dm]/unit)                   0.2262          -99
      Number at maturity (no/unit)                         411.5          -99
      Tops weight at maturity (kg [dm]/ha)                 11676          -99
      By-product produced (stalk) at maturity (kg[dm]/ha    5949          -99
      Leaf area index, maximum                              2.64          -99
      Harvest index at maturity                            0.494          -99
      Grain N at maturity (kg/ha)                            102          -99
      Tops N at maturity (kg/ha)                             138          -99
      Stem N at maturity (kg/ha)                              36          -99
      Grain N at maturity (%)                                1.8          -99
      Tops weight at anthesis (kg [dm]/ha)                  4756          -99
      Tops N at anthesis (kg/ha)                              96          -99
      Leaf number per stem at maturity                     19.28          -99
      Emergence day (dap)                                      6          -99


*ENVIRONMENTAL AND STRESS FACTORS

 |-----Development Phase------|--------------------------------------Environment--------------------------------------|-----------------Stress-----------------|
                              |---------------Average--------------|-----Cumulative-----|--------Count of days--------|          (0=Min, 1=Max Stress)         |
                         Time  Temp  Temp  Temp Solar Photop                Evapo    Pot TMIN TMIN TMAX TMAX TMAX RAIN|----Water----|---Nitrogen--|-Phosphorus-|
                         Span   Max   Min  Mean   Rad  [day]    CO2   Rain  Trans     ET   <    <    >    >    >    >   Photo         Photo         Photo
                         days    邂    邂    邂 MJ/m2     hr    ppm     mm     mm     mm  0邂  2邂 30邂 32邂 34邂  0mm  synth Growth  synth Growth  synth Growth
----------------------------------------------------------------------------------------------------------------------------------------------------------------
 Emergence-End Juvenile    11  31.3  19.8  25.5  15.9  24.00  386.9   50.2   24.6   49.7    0    0    6    4    2    7  0.000  0.000  0.002  0.004  0.000  0.000
 End Juvenil-Floral Init    7  31.0  18.6  24.8  18.2  24.00  386.9    1.3   17.3   35.1    0    0    6    0    0    2  0.000  0.000  0.001  0.003  0.000  0.000
 Floral Init-End Lf Grow   36  31.2  18.9  25.1  16.0  24.00  387.1  152.3  119.8  145.2    0    0   23   10    1   17  0.000  0.018  0.045  0.102  0.000  0.000
 End Lf Grth-Beg Grn Fil   11  29.1  18.3  23.7  14.5  24.00  387.3    5.8   37.5   37.6    0    0    4    0    0    2  0.000  0.000  0.000  0.000  0.000  0.000
 Grain Filling Phase       42  31.4  18.2  24.8  17.2  24.00  387.4   71.4  103.3  178.0    0    0   27   15    4    6  0.419  0.465  0.000  0.000  0.000  0.000


 Planting to Harvest      116  31.1  18.7  24.9  16.4  24.00  387.2  283.4  311.7  484.6    0    0   73   32    7   35  0.175  0.198  0.014  0.032  0.000  0.000
----------------------------------------------------------------------------------------------------------------------------------------------------------------


*Resource Productivity
 Growing season length: 116 days 

 Precipitation during growing season       283.4 mm[rain]
   Dry Matter Productivity                  4.12 kg[DM]/m3[rain]          =   41.2 kg[DM]/ha per mm[rain]
   Yield Productivity                       2.04 kg[grain yield]/m3[rain] =   20.4 kg[yield]/ha per mm[rain]

 Evapotranspiration during growing season  311.7 mm[ET]
   Dry Matter Productivity                  3.75 kg[DM]/m3[ET]            =   37.5 kg[DM]/ha per mm[ET]
   Yield Productivity                       1.85 kg[grain yield]/m3[ET]   =   18.5 kg[yield]/ha per mm[ET]

 Transpiration during growing season       201.8 mm[EP]
   Dry Matter Productivity                  5.79 kg[DM]/m3[EP]            =   57.9 kg[DM]/ha per mm[EP]
   Yield Productivity                       2.86 kg[grain yield]/m3[EP]   =   28.6 kg[yield]/ha per mm[EP]

 N applied during growing season            161. kg[N applied]/ha
   Dry Matter Productivity                  72.5 kg[DM]/kg[N applied]
   Yield Productivity                       35.9 kg[yield]/kg[N applied]

 N uptake during growing season              156 kg[N uptake]/ha
   Dry Matter Productivity                  74.8 kg[DM]/kg[N uptake]
   Yield Productivity                       37.0 kg[yield]/kg[N uptake]

--------------------------------------------------------------------------------------------------------------

                     Maize YIELD :     5772 kg/ha    [Dry weight] 

**************************************************************************************************************

*DSSAT Cropping System Model Ver. 4.6.1.000 -release      OCT 24, 2017; 10:49:08
                                                                                
*RUN   5        : P04/22                    MZCER046 ANBU2009    5              
 MODEL          : MZCER046 - Maize                                              
 EXPERIMENT     : ANBU2009 MZ  Analisis a침os de bajo rendimiento Buga          
 DATA PATH      : C:\DSSAT46\maize\                                             
 TREATMENT  5   : P04/22                    MZCER046                            
                                                                                
                                                                                
 CROP           : Maize            CULTIVAR : P30F35           ECOTYPE :IB0001  
 STARTING DATE  : MAR 23 2009                                                   
 PLANTING DATE  : APR 22 2009        PLANTS/m2 :  6.2     ROW SPACING :  80.cm  
 WEATHER        : CUNI   2009                                                   
 SOIL           : CCBUGA2017     TEXTURE : CL    -   Suelo Buga MADR Fase I     
 SOIL INITIAL C : DEPTH: 90cm EXTR. H2O: 83.9mm  NO3:  0.0kg/ha  NH4:  0.0kg/ha 
 WATER BALANCE  : RAINFED                                                       
 IRRIGATION     : NOT IRRIGATED                                                 
 NITROGEN BAL.  : SOIL-N & N-UPTAKE SIMULATION; NO N-FIXATION                   
 N-FERTILIZER   :      161 kg/ha IN     5 APPLICATIONS                          
 RESIDUE/MANURE : INITIAL :     0 kg/ha ;       0 kg/ha IN     0 APPLICATIONS   
 ENVIRONM. OPT. : DAYL=    0.00  SRAD=    0.00  TMAX=    0.00  TMIN=    0.00    
                  RAIN=    0.00  CO2 =    0.00  DEW =    0.00  WIND=    0.00    
 SIMULATION OPT : WATER   :Y  NITROGEN:Y  N-FIX:N  PHOSPH :N  PESTS  :N         
                  PHOTO   :C  ET      :R  INFIL:S  HYDROL :R  SOM    :G         
                  CO2 387ppm  NSWIT   :1  EVAP :S  SOIL   :2  STEMP  :D         
 MANAGEMENT OPT : PLANTING:R  IRRIG   :N  FERT :D  RESIDUE:R  HARVEST:M         
                  WEATHER :M  TILLAGE :N                                        
                                                                                
*SUMMARY OF SOIL AND GENETIC INPUT PARAMETERS                                   
                                                                                
   SOIL LOWER UPPER   SAT  EXTR  INIT   ROOT   BULK     pH    NO3    NH4    ORG 
  DEPTH LIMIT LIMIT    SW    SW    SW   DIST   DENS                          C  
   cm   cm3/cm3    cm3/cm3    cm3/cm3         g/cm3         ugN/g  ugN/g     %  
------------------------------------------------------------------------------- 
  0-  5 0.215 0.331 0.341 0.116 0.331   1.00   1.68   6.70   0.00   0.00   0.75 
  5- 15 0.215 0.331 0.341 0.116 0.331   1.00   1.68   6.70   0.00   0.00   0.75 
 15- 25 0.215 0.331 0.341 0.116 0.331   1.00   1.68   6.70   0.00   0.00   0.75 
 25- 35 0.181 0.291 0.364 0.110 0.291   0.50   1.61   7.20   0.00   0.00   0.53 
 35- 45 0.181 0.291 0.364 0.110 0.291   0.50   1.61   7.20   0.00   0.00   0.53 
 45- 67 0.096 0.169 0.404 0.073 0.169   0.27   1.51   7.00   0.00   0.00   0.05 
 67- 90 0.096 0.169 0.404 0.073 0.169   0.27   1.51   7.00   0.00   0.00   0.05 
                                                                                
TOT- 90  13.3  21.7  34.0   8.4  21.7  <--cm   -  kg/ha-->    0.0    0.0  51964 
SOIL ALBEDO    : 0.09      EVAPORATION LIMIT : 6.00         MIN. FACTOR  : 1.00 
RUNOFF CURVE # :76.00      DRAINAGE RATE     : 0.60         FERT. FACTOR : 1.00 
                                                                                
 Maize      CULTIVAR :CI0001-P30F35             ECOTYPE :IB0001                 
 P1     : 200.00  P2     : 0.3000  P5     : 925.00                              
 G2     : 954.00  G3     :  7.000  PHINT  : 50.000                              


*SIMULATED CROP AND SOIL STATUS AT MAIN DEVELOPMENT STAGES

 RUN NO.     5     P04/22                  

        CROP GROWTH     BIOMASS         LEAF   CROP N     STRESS      STRESS                                           
   DATE  AGE STAGE        kg/ha    LAI   NUM  kg/ha  %   H2O  Nitr Phos1 Phos2  RSTG                                   
 ------  --- ----------   -----  -----  ----  ---  ---  ----  ----  ----  ----  ----                                   
 23 MAR    0 Start Sim        0   0.00   0.0    0  0.0  0.00  0.00  0.00  0.00     7
 22 APR    0 Sowing           0   0.00   0.0    0  0.0  0.00  0.00  0.00  0.00     8
 23 APR    1 Germinate        0   0.00   0.0    0  0.0  0.00  0.00  0.00  0.00     9
 27 APR    5 Emergence       25   0.00   2.1    1  4.4  0.00  0.01  0.00  0.00     1
  9 MAY   17 End Juveni      63   0.14   6.9    2  3.2  0.00  0.00  0.00  0.00     2
 16 MAY   24 Floral Ini     252   0.47   9.4    9  3.6  0.00  0.00  0.00  0.00     3
 21 JUN   60 75% Silkin    5290   2.95  19.4  104  2.0  0.00  0.07  0.00  0.00     4
  3 JUL   72 Beg Gr Fil    7627   2.78  19.4  104  1.4  0.00  0.00  0.00  0.00     5
 13 AUG  113 End Gr Fil   11243   0.83  19.4  127  1.1  0.64  0.00  0.00  0.00     6
 16 AUG  116 Maturity     11243   0.83  19.4  127  1.1  0.50  0.00  0.00  0.00    10
 16 AUG  116 Harvest      11243   0.83  19.4  127  1.1  0.00  0.00  0.00  0.00    10


*MAIN GROWTH AND DEVELOPMENT VARIABLES

@     VARIABLE                                         SIMULATED     MEASURED
      --------                                         ---------     --------
      Anthesis day (dap)                                      60          -99
      Physiological maturity day (dap)                       116          -99
      Yield at harvest maturity (kg [dm]/ha)                4806          -99
      Number at maturity (no/m2)                            2659          -99
      Unit wt at maturity (g [dm]/unit)                   0.1808          -99
      Number at maturity (no/unit)                         428.9          -99
      Tops weight at maturity (kg [dm]/ha)                 11243          -99
      By-product produced (stalk) at maturity (kg[dm]/ha    6486          -99
      Leaf area index, maximum                              2.95          -99
      Harvest index at maturity                            0.428          -99
      Grain N at maturity (kg/ha)                             86          -99
      Tops N at maturity (kg/ha)                             127          -99
      Stem N at maturity (kg/ha)                              40          -99
      Grain N at maturity (%)                                1.8          -99
      Tops weight at anthesis (kg [dm]/ha)                  5003          -99
      Tops N at anthesis (kg/ha)                             100          -99
      Leaf number per stem at maturity                     19.39          -99
      Emergence day (dap)                                      5          -99


*ENVIRONMENTAL AND STRESS FACTORS

 |-----Development Phase------|--------------------------------------Environment--------------------------------------|-----------------Stress-----------------|
                              |---------------Average--------------|-----Cumulative-----|--------Count of days--------|          (0=Min, 1=Max Stress)         |
                         Time  Temp  Temp  Temp Solar Photop                Evapo    Pot TMIN TMIN TMAX TMAX TMAX RAIN|----Water----|---Nitrogen--|-Phosphorus-|
                         Span   Max   Min  Mean   Rad  [day]    CO2   Rain  Trans     ET   <    <    >    >    >    >   Photo         Photo         Photo
                         days    邂    邂    邂 MJ/m2     hr    ppm     mm     mm     mm  0邂  2邂 30邂 32邂 34邂  0mm  synth Growth  synth Growth  synth Growth
----------------------------------------------------------------------------------------------------------------------------------------------------------------
 Emergence-End Juvenile    12  30.5  19.5  25.0  16.5  24.00  386.9   42.1   34.0   55.9    0    0    7    2    1    7  0.000  0.000  0.002  0.006  0.000  0.000
 End Juvenil-Floral Init    7  31.5  17.9  24.7  17.5  24.00  387.0    4.8   11.7   33.4    0    0    5    1    0    3  0.000  0.000  0.001  0.002  0.000  0.000
 Floral Init-End Lf Grow   36  31.0  19.0  25.0  15.7  24.00  387.1  148.0  121.2  140.9    0    0   22    9    1   15  0.000  0.000  0.027  0.065  0.000  0.000
 End Lf Grth-Beg Grn Fil   12  28.6  18.0  23.3  14.7  24.00  387.3   60.1   40.8   41.0    0    0    2    0    0    4  0.000  0.000  0.000  0.000  0.000  0.000
 Grain Filling Phase       41  31.9  18.3  25.1  17.4  24.00  387.4   19.5   84.7  177.3    0    0   31   18    4    5  0.560  0.615  0.000  0.000  0.000  0.000


 Planting to Harvest      116  31.2  18.7  24.9  16.5  24.00  387.2  294.0  303.0  485.2    0    0   74   35    8   36  0.211  0.232  0.009  0.021  0.000  0.000
----------------------------------------------------------------------------------------------------------------------------------------------------------------


*Resource Productivity
 Growing season length: 116 days 

 Precipitation during growing season       294.0 mm[rain]
   Dry Matter Productivity                  3.82 kg[DM]/m3[rain]          =   38.2 kg[DM]/ha per mm[rain]
   Yield Productivity                       1.63 kg[grain yield]/m3[rain] =   16.3 kg[yield]/ha per mm[rain]

 Evapotranspiration during growing season  303.0 mm[ET]
   Dry Matter Productivity                  3.71 kg[DM]/m3[ET]            =   37.1 kg[DM]/ha per mm[ET]
   Yield Productivity                       1.59 kg[grain yield]/m3[ET]   =   15.9 kg[yield]/ha per mm[ET]

 Transpiration during growing season       195.0 mm[EP]
   Dry Matter Productivity                  5.77 kg[DM]/m3[EP]            =   57.7 kg[DM]/ha per mm[EP]
   Yield Productivity                       2.46 kg[grain yield]/m3[EP]   =   24.6 kg[yield]/ha per mm[EP]

 N applied during growing season            161. kg[N applied]/ha
   Dry Matter Productivity                  69.8 kg[DM]/kg[N applied]
   Yield Productivity                       29.9 kg[yield]/kg[N applied]

 N uptake during growing season              144 kg[N uptake]/ha
   Dry Matter Productivity                  78.1 kg[DM]/kg[N uptake]
   Yield Productivity                       33.4 kg[yield]/kg[N uptake]

--------------------------------------------------------------------------------------------------------------

                     Maize YIELD :     4806 kg/ha    [Dry weight] 

**************************************************************************************************************

*DSSAT Cropping System Model Ver. 4.6.1.000 -release      OCT 24, 2017; 10:49:08
                                                                                
*RUN   6        : P04/27                    MZCER046 ANBU2009    6              
 MODEL          : MZCER046 - Maize                                              
 EXPERIMENT     : ANBU2009 MZ  Analisis a침os de bajo rendimiento Buga          
 DATA PATH      : C:\DSSAT46\maize\                                             
 TREATMENT  6   : P04/27                    MZCER046                            
                                                                                
                                                                                
 CROP           : Maize            CULTIVAR : P30F35           ECOTYPE :IB0001  
 STARTING DATE  : MAR 28 2009                                                   
 PLANTING DATE  : APR 27 2009        PLANTS/m2 :  6.2     ROW SPACING :  80.cm  
 WEATHER        : CUNI   2009                                                   
 SOIL           : CCBUGA2017     TEXTURE : CL    -   Suelo Buga MADR Fase I     
 SOIL INITIAL C : DEPTH: 90cm EXTR. H2O: 83.9mm  NO3:  0.0kg/ha  NH4:  0.0kg/ha 
 WATER BALANCE  : RAINFED                                                       
 IRRIGATION     : NOT IRRIGATED                                                 
 NITROGEN BAL.  : SOIL-N & N-UPTAKE SIMULATION; NO N-FIXATION                   
 N-FERTILIZER   :      161 kg/ha IN     5 APPLICATIONS                          
 RESIDUE/MANURE : INITIAL :     0 kg/ha ;       0 kg/ha IN     0 APPLICATIONS   
 ENVIRONM. OPT. : DAYL=    0.00  SRAD=    0.00  TMAX=    0.00  TMIN=    0.00    
                  RAIN=    0.00  CO2 =    0.00  DEW =    0.00  WIND=    0.00    
 SIMULATION OPT : WATER   :Y  NITROGEN:Y  N-FIX:N  PHOSPH :N  PESTS  :N         
                  PHOTO   :C  ET      :R  INFIL:S  HYDROL :R  SOM    :G         
                  CO2 387ppm  NSWIT   :1  EVAP :S  SOIL   :2  STEMP  :D         
 MANAGEMENT OPT : PLANTING:R  IRRIG   :N  FERT :D  RESIDUE:R  HARVEST:M         
                  WEATHER :M  TILLAGE :N                                        
                                                                                
*SUMMARY OF SOIL AND GENETIC INPUT PARAMETERS                                   
                                                                                
   SOIL LOWER UPPER   SAT  EXTR  INIT   ROOT   BULK     pH    NO3    NH4    ORG 
  DEPTH LIMIT LIMIT    SW    SW    SW   DIST   DENS                          C  
   cm   cm3/cm3    cm3/cm3    cm3/cm3         g/cm3         ugN/g  ugN/g     %  
------------------------------------------------------------------------------- 
  0-  5 0.215 0.331 0.341 0.116 0.331   1.00   1.68   6.70   0.00   0.00   0.75 
  5- 15 0.215 0.331 0.341 0.116 0.331   1.00   1.68   6.70   0.00   0.00   0.75 
 15- 25 0.215 0.331 0.341 0.116 0.331   1.00   1.68   6.70   0.00   0.00   0.75 
 25- 35 0.181 0.291 0.364 0.110 0.291   0.50   1.61   7.20   0.00   0.00   0.53 
 35- 45 0.181 0.291 0.364 0.110 0.291   0.50   1.61   7.20   0.00   0.00   0.53 
 45- 67 0.096 0.169 0.404 0.073 0.169   0.27   1.51   7.00   0.00   0.00   0.05 
 67- 90 0.096 0.169 0.404 0.073 0.169   0.27   1.51   7.00   0.00   0.00   0.05 
                                                                                
TOT- 90  13.3  21.7  34.0   8.4  21.7  <--cm   -  kg/ha-->    0.0    0.0  51964 
SOIL ALBEDO    : 0.09      EVAPORATION LIMIT : 6.00         MIN. FACTOR  : 1.00 
RUNOFF CURVE # :76.00      DRAINAGE RATE     : 0.60         FERT. FACTOR : 1.00 
                                                                                
 Maize      CULTIVAR :CI0001-P30F35             ECOTYPE :IB0001                 
 P1     : 200.00  P2     : 0.3000  P5     : 925.00                              
 G2     : 954.00  G3     :  7.000  PHINT  : 50.000                              


*SIMULATED CROP AND SOIL STATUS AT MAIN DEVELOPMENT STAGES

 RUN NO.     6     P04/27                  

        CROP GROWTH     BIOMASS         LEAF   CROP N     STRESS      STRESS                                           
   DATE  AGE STAGE        kg/ha    LAI   NUM  kg/ha  %   H2O  Nitr Phos1 Phos2  RSTG                                   
 ------  --- ----------   -----  -----  ----  ---  ---  ----  ----  ----  ----  ----                                   
 28 MAR    0 Start Sim        0   0.00   0.0    0  0.0  0.00  0.00  0.00  0.00     7
 27 APR    0 Sowing           0   0.00   0.0    0  0.0  0.00  0.00  0.00  0.00     8
 28 APR    1 Germinate        0   0.00   0.0    0  0.0  0.00  0.00  0.00  0.00     9
  3 MAY    6 Emergence       25   0.00   2.0    1  4.4  0.00  0.01  0.00  0.00     1
 14 MAY   17 End Juveni      64   0.14   6.5    2  3.3  0.00  0.00  0.00  0.00     2
 21 MAY   24 Floral Ini     235   0.45   9.0    8  3.6  0.00  0.00  0.00  0.00     3
 27 JUN   61 75% Silkin    5568   2.97  19.0  107  1.9  0.00  0.01  0.00  0.00     4
  8 JUL   72 Beg Gr Fil    7849   2.81  19.0  107  1.4  0.00  0.00  0.00  0.00     5
 18 AUG  113 End Gr Fil   10608   0.70  19.0  118  1.1  0.72  0.00  0.00  0.00     6
 20 AUG  115 Maturity     10608   0.70  19.0  118  1.1  0.83  0.00  0.00  0.00    10
 20 AUG  115 Harvest      10608   0.70  19.0  118  1.1  0.00  0.00  0.00  0.00    10


*MAIN GROWTH AND DEVELOPMENT VARIABLES

@     VARIABLE                                         SIMULATED     MEASURED
      --------                                         ---------     --------
      Anthesis day (dap)                                      61          -99
      Physiological maturity day (dap)                       115          -99
      Yield at harvest maturity (kg [dm]/ha)                4020          -99
      Number at maturity (no/m2)                            2752          -99
      Unit wt at maturity (g [dm]/unit)                   0.1461          -99
      Number at maturity (no/unit)                         443.9          -99
      Tops weight at maturity (kg [dm]/ha)                 10608          -99
      By-product produced (stalk) at maturity (kg[dm]/ha    6638          -99
      Leaf area index, maximum                              3.11          -99
      Harvest index at maturity                            0.379          -99
      Grain N at maturity (kg/ha)                             73          -99
      Tops N at maturity (kg/ha)                             118          -99
      Stem N at maturity (kg/ha)                              45          -99
      Grain N at maturity (%)                                1.8          -99
      Tops weight at anthesis (kg [dm]/ha)                  5329          -99
      Tops N at anthesis (kg/ha)                             106          -99
      Leaf number per stem at maturity                     18.96          -99
      Emergence day (dap)                                      6          -99


*ENVIRONMENTAL AND STRESS FACTORS

 |-----Development Phase------|--------------------------------------Environment--------------------------------------|-----------------Stress-----------------|
                              |---------------Average--------------|-----Cumulative-----|--------Count of days--------|          (0=Min, 1=Max Stress)         |
                         Time  Temp  Temp  Temp Solar Photop                Evapo    Pot TMIN TMIN TMAX TMAX TMAX RAIN|----Water----|---Nitrogen--|-Phosphorus-|
                         Span   Max   Min  Mean   Rad  [day]    CO2   Rain  Trans     ET   <    <    >    >    >    >   Photo         Photo         Photo
                         days    邂    邂    邂 MJ/m2     hr    ppm     mm     mm     mm  0邂  2邂 30邂 32邂 34邂  0mm  synth Growth  synth Growth  synth Growth
----------------------------------------------------------------------------------------------------------------------------------------------------------------
 Emergence-End Juvenile    11  31.0  18.6  24.8  17.1  24.00  386.9   12.6   22.0   52.5    0    0    8    1    0    5  0.000  0.000  0.002  0.005  0.000  0.000
 End Juvenil-Floral Init    7  31.8  18.6  25.2  16.0  24.00  387.1    0.5    9.9   30.7    0    0    6    1    0    1  0.000  0.000  0.000  0.001  0.000  0.000
 Floral Init-End Lf Grow   37  30.5  18.9  24.7  15.6  24.00  387.2  153.3  124.5  143.2    0    0   19    8    1   16  0.000  0.000  0.005  0.013  0.000  0.000
 End Lf Grth-Beg Grn Fil   11  28.8  18.3  23.5  15.2  24.00  387.3   56.8   38.8   39.0    0    0    0    0    0    4  0.000  0.000  0.000  0.000  0.000  0.000
 Grain Filling Phase       41  32.3  18.4  25.4  17.7  24.00  387.4   33.2   71.9  182.8    0    0   35   21    5    6  0.662  0.723  0.000  0.000  0.000  0.000


 Planting to Harvest      115  31.1  18.7  24.9  16.5  24.00  387.2  290.7  288.7  483.4    0    0   73   33    7   37  0.242  0.265  0.002  0.005  0.000  0.000
----------------------------------------------------------------------------------------------------------------------------------------------------------------


*Resource Productivity
 Growing season length: 115 days 

 Precipitation during growing season       290.7 mm[rain]
   Dry Matter Productivity                  3.65 kg[DM]/m3[rain]          =   36.5 kg[DM]/ha per mm[rain]
   Yield Productivity                       1.38 kg[grain yield]/m3[rain] =   13.8 kg[yield]/ha per mm[rain]

 Evapotranspiration during growing season  288.7 mm[ET]
   Dry Matter Productivity                  3.67 kg[DM]/m3[ET]            =   36.7 kg[DM]/ha per mm[ET]
   Yield Productivity                       1.39 kg[grain yield]/m3[ET]   =   13.9 kg[yield]/ha per mm[ET]

 Transpiration during growing season       177.3 mm[EP]
   Dry Matter Productivity                  5.98 kg[DM]/m3[EP]            =   59.8 kg[DM]/ha per mm[EP]
   Yield Productivity                       2.27 kg[grain yield]/m3[EP]   =   22.7 kg[yield]/ha per mm[EP]

 N applied during growing season            161. kg[N applied]/ha
   Dry Matter Productivity                  65.9 kg[DM]/kg[N applied]
   Yield Productivity                       25.0 kg[yield]/kg[N applied]

 N uptake during growing season              133 kg[N uptake]/ha
   Dry Matter Productivity                  79.8 kg[DM]/kg[N uptake]
   Yield Productivity                       30.2 kg[yield]/kg[N uptake]

--------------------------------------------------------------------------------------------------------------

                     Maize YIELD :     4020 kg/ha    [Dry weight] 

**************************************************************************************************************

*DSSAT Cropping System Model Ver. 4.6.1.000 -release      OCT 24, 2017; 10:49:08
                                                                                
*RUN   7        : P05/02                    MZCER046 ANBU2009    7              
 MODEL          : MZCER046 - Maize                                              
 EXPERIMENT     : ANBU2009 MZ  Analisis a침os de bajo rendimiento Buga          
 DATA PATH      : C:\DSSAT46\maize\                                             
 TREATMENT  7   : P05/02                    MZCER046                            
                                                                                
                                                                                
 CROP           : Maize            CULTIVAR : P30F35           ECOTYPE :IB0001  
 STARTING DATE  : APR  2 2009                                                   
 PLANTING DATE  : MAY  2 2009        PLANTS/m2 :  6.2     ROW SPACING :  80.cm  
 WEATHER        : CUNI   2009                                                   
 SOIL           : CCBUGA2017     TEXTURE : CL    -   Suelo Buga MADR Fase I     
 SOIL INITIAL C : DEPTH: 90cm EXTR. H2O: 83.9mm  NO3:  0.0kg/ha  NH4:  0.0kg/ha 
 WATER BALANCE  : RAINFED                                                       
 IRRIGATION     : NOT IRRIGATED                                                 
 NITROGEN BAL.  : SOIL-N & N-UPTAKE SIMULATION; NO N-FIXATION                   
 N-FERTILIZER   :      161 kg/ha IN     5 APPLICATIONS                          
 RESIDUE/MANURE : INITIAL :     0 kg/ha ;       0 kg/ha IN     0 APPLICATIONS   
 ENVIRONM. OPT. : DAYL=    0.00  SRAD=    0.00  TMAX=    0.00  TMIN=    0.00    
                  RAIN=    0.00  CO2 =    0.00  DEW =    0.00  WIND=    0.00    
 SIMULATION OPT : WATER   :Y  NITROGEN:Y  N-FIX:N  PHOSPH :N  PESTS  :N         
                  PHOTO   :C  ET      :R  INFIL:S  HYDROL :R  SOM    :G         
                  CO2 387ppm  NSWIT   :1  EVAP :S  SOIL   :2  STEMP  :D         
 MANAGEMENT OPT : PLANTING:R  IRRIG   :N  FERT :D  RESIDUE:R  HARVEST:M         
                  WEATHER :M  TILLAGE :N                                        
                                                                                
*SUMMARY OF SOIL AND GENETIC INPUT PARAMETERS                                   
                                                                                
   SOIL LOWER UPPER   SAT  EXTR  INIT   ROOT   BULK     pH    NO3    NH4    ORG 
  DEPTH LIMIT LIMIT    SW    SW    SW   DIST   DENS                          C  
   cm   cm3/cm3    cm3/cm3    cm3/cm3         g/cm3         ugN/g  ugN/g     %  
------------------------------------------------------------------------------- 
  0-  5 0.215 0.331 0.341 0.116 0.331   1.00   1.68   6.70   0.00   0.00   0.75 
  5- 15 0.215 0.331 0.341 0.116 0.331   1.00   1.68   6.70   0.00   0.00   0.75 
 15- 25 0.215 0.331 0.341 0.116 0.331   1.00   1.68   6.70   0.00   0.00   0.75 
 25- 35 0.181 0.291 0.364 0.110 0.291   0.50   1.61   7.20   0.00   0.00   0.53 
 35- 45 0.181 0.291 0.364 0.110 0.291   0.50   1.61   7.20   0.00   0.00   0.53 
 45- 67 0.096 0.169 0.404 0.073 0.169   0.27   1.51   7.00   0.00   0.00   0.05 
 67- 90 0.096 0.169 0.404 0.073 0.169   0.27   1.51   7.00   0.00   0.00   0.05 
                                                                                
TOT- 90  13.3  21.7  34.0   8.4  21.7  <--cm   -  kg/ha-->    0.0    0.0  51964 
SOIL ALBEDO    : 0.09      EVAPORATION LIMIT : 6.00         MIN. FACTOR  : 1.00 
RUNOFF CURVE # :76.00      DRAINAGE RATE     : 0.60         FERT. FACTOR : 1.00 
                                                                                
 Maize      CULTIVAR :CI0001-P30F35             ECOTYPE :IB0001                 
 P1     : 200.00  P2     : 0.3000  P5     : 925.00                              
 G2     : 954.00  G3     :  7.000  PHINT  : 50.000                              


*SIMULATED CROP AND SOIL STATUS AT MAIN DEVELOPMENT STAGES

 RUN NO.     7     P05/02                  

        CROP GROWTH     BIOMASS         LEAF   CROP N     STRESS      STRESS                                           
   DATE  AGE STAGE        kg/ha    LAI   NUM  kg/ha  %   H2O  Nitr Phos1 Phos2  RSTG                                   
 ------  --- ----------   -----  -----  ----  ---  ---  ----  ----  ----  ----  ----                                   
  2 APR    0 Start Sim        0   0.00   0.0    0  0.0  0.00  0.00  0.00  0.00     7
  2 MAY    0 Sowing           0   0.00   0.0    0  0.0  0.00  0.00  0.00  0.00     8
  3 MAY    1 Germinate        0   0.00   0.0    0  0.0  0.00  0.00  0.00  0.00     9
  8 MAY    6 Emergence       25   0.00   2.0    1  4.4  0.00  0.01  0.00  0.00     1
 19 MAY   17 End Juveni      68   0.15   6.5    2  3.3  0.00  0.00  0.00  0.00     2
 26 MAY   24 Floral Ini     253   0.48   9.1    9  3.6  0.00  0.00  0.00  0.00     3
  3 JUL   62 75% Silkin    5748   2.95  19.1  111  1.9  0.02  0.00  0.00  0.00     4
 13 JUL   72 Beg Gr Fil    7930   2.79  19.1  111  1.4  0.07  0.00  0.00  0.00     5
 23 AUG  113 End Gr Fil   10423   0.67  19.1  112  1.1  0.74  0.00  0.00  0.00     6
 26 AUG  116 Maturity     10423   0.67  19.1  112  1.1  0.00  0.00  0.00  0.00    10
 26 AUG  116 Harvest      10423   0.67  19.1  112  1.1  0.00  0.00  0.00  0.00    10


*MAIN GROWTH AND DEVELOPMENT VARIABLES

@     VARIABLE                                         SIMULATED     MEASURED
      --------                                         ---------     --------
      Anthesis day (dap)                                      62          -99
      Physiological maturity day (dap)                       116          -99
      Yield at harvest maturity (kg [dm]/ha)                3705          -99
      Number at maturity (no/m2)                            2871          -99
      Unit wt at maturity (g [dm]/unit)                   0.1291          -99
      Number at maturity (no/unit)                         463.1          -99
      Tops weight at maturity (kg [dm]/ha)                 10423          -99
      By-product produced (stalk) at maturity (kg[dm]/ha    6766          -99
      Leaf area index, maximum                              3.10          -99
      Harvest index at maturity                            0.356          -99
      Grain N at maturity (kg/ha)                             68          -99
      Tops N at maturity (kg/ha)                             112          -99
      Stem N at maturity (kg/ha)                              44          -99
      Grain N at maturity (%)                                1.8          -99
      Tops weight at anthesis (kg [dm]/ha)                  5509          -99
      Tops N at anthesis (kg/ha)                             108          -99
      Leaf number per stem at maturity                     19.11          -99
      Emergence day (dap)                                      6          -99


*ENVIRONMENTAL AND STRESS FACTORS

 |-----Development Phase------|--------------------------------------Environment--------------------------------------|-----------------Stress-----------------|
                              |---------------Average--------------|-----Cumulative-----|--------Count of days--------|          (0=Min, 1=Max Stress)         |
                         Time  Temp  Temp  Temp Solar Photop                Evapo    Pot TMIN TMIN TMAX TMAX TMAX RAIN|----Water----|---Nitrogen--|-Phosphorus-|
                         Span   Max   Min  Mean   Rad  [day]    CO2   Rain  Trans     ET   <    <    >    >    >    >   Photo         Photo         Photo
                         days    邂    邂    邂 MJ/m2     hr    ppm     mm     mm     mm  0邂  2邂 30邂 32邂 34邂  0mm  synth Growth  synth Growth  synth Growth
----------------------------------------------------------------------------------------------------------------------------------------------------------------
 Emergence-End Juvenile    11  31.5  18.1  24.8  17.8  24.00  387.0    5.3   11.9   54.3    0    0    9    1    0    4  0.000  0.000  0.002  0.004  0.000  0.000
 End Juvenil-Floral Init    7  32.3  18.9  25.6  13.4  24.00  387.1    4.9    8.8   25.7    0    0    6    4    0    2  0.000  0.000  0.001  0.002  0.000  0.000
 Floral Init-End Lf Grow   38  30.0  18.8  24.4  15.7  24.00  387.2  202.7  133.2  148.1    0    0   15    5    1   16  0.000  0.020  0.000  0.000  0.000  0.000
 End Lf Grth-Beg Grn Fil   10  29.8  18.3  24.0  15.9  24.00  387.3    2.5   37.4   37.7    0    0    3    1    0    2  0.000  0.025  0.000  0.000  0.000  0.000
 Grain Filling Phase       41  32.5  18.5  25.5  17.8  24.00  387.5   49.2   66.2  185.5    0    0   37   20    5    9  0.688  0.752  0.000  0.000  0.000  0.000


 Planting to Harvest      116  31.2  18.6  24.9  16.6  24.00  387.3  287.9  284.7  491.3    0    0   76   32    6   37  0.243  0.274  0.000  0.001  0.000  0.000
----------------------------------------------------------------------------------------------------------------------------------------------------------------


*Resource Productivity
 Growing season length: 116 days 

 Precipitation during growing season       287.9 mm[rain]
   Dry Matter Productivity                  3.62 kg[DM]/m3[rain]          =   36.2 kg[DM]/ha per mm[rain]
   Yield Productivity                       1.29 kg[grain yield]/m3[rain] =   12.9 kg[yield]/ha per mm[rain]

 Evapotranspiration during growing season  284.7 mm[ET]
   Dry Matter Productivity                  3.66 kg[DM]/m3[ET]            =   36.6 kg[DM]/ha per mm[ET]
   Yield Productivity                       1.30 kg[grain yield]/m3[ET]   =   13.0 kg[yield]/ha per mm[ET]

 Transpiration during growing season       173.5 mm[EP]
   Dry Matter Productivity                  6.01 kg[DM]/m3[EP]            =   60.1 kg[DM]/ha per mm[EP]
   Yield Productivity                       2.14 kg[grain yield]/m3[EP]   =   21.4 kg[yield]/ha per mm[EP]

 N applied during growing season            161. kg[N applied]/ha
   Dry Matter Productivity                  64.7 kg[DM]/kg[N applied]
   Yield Productivity                       23.0 kg[yield]/kg[N applied]

 N uptake during growing season              127 kg[N uptake]/ha
   Dry Matter Productivity                  82.1 kg[DM]/kg[N uptake]
   Yield Productivity                       29.2 kg[yield]/kg[N uptake]

--------------------------------------------------------------------------------------------------------------

                     Maize YIELD :     3705 kg/ha    [Dry weight] 

**************************************************************************************************************

*DSSAT Cropping System Model Ver. 4.6.1.000 -release      OCT 24, 2017; 10:49:08
                                                                                
*RUN   8        : P05/07                    MZCER046 ANBU2009    8              
 MODEL          : MZCER046 - Maize                                              
 EXPERIMENT     : ANBU2009 MZ  Analisis a침os de bajo rendimiento Buga          
 DATA PATH      : C:\DSSAT46\maize\                                             
 TREATMENT  8   : P05/07                    MZCER046                            
                                                                                
                                                                                
 CROP           : Maize            CULTIVAR : P30F35           ECOTYPE :IB0001  
 STARTING DATE  : APR  7 2009                                                   
 PLANTING DATE  : MAY  7 2009        PLANTS/m2 :  6.2     ROW SPACING :  80.cm  
 WEATHER        : CUNI   2009                                                   
 SOIL           : CCBUGA2017     TEXTURE : CL    -   Suelo Buga MADR Fase I     
 SOIL INITIAL C : DEPTH: 90cm EXTR. H2O: 83.9mm  NO3:  0.0kg/ha  NH4:  0.0kg/ha 
 WATER BALANCE  : RAINFED                                                       
 IRRIGATION     : NOT IRRIGATED                                                 
 NITROGEN BAL.  : SOIL-N & N-UPTAKE SIMULATION; NO N-FIXATION                   
 N-FERTILIZER   :      161 kg/ha IN     5 APPLICATIONS                          
 RESIDUE/MANURE : INITIAL :     0 kg/ha ;       0 kg/ha IN     0 APPLICATIONS   
 ENVIRONM. OPT. : DAYL=    0.00  SRAD=    0.00  TMAX=    0.00  TMIN=    0.00    
                  RAIN=    0.00  CO2 =    0.00  DEW =    0.00  WIND=    0.00    
 SIMULATION OPT : WATER   :Y  NITROGEN:Y  N-FIX:N  PHOSPH :N  PESTS  :N         
                  PHOTO   :C  ET      :R  INFIL:S  HYDROL :R  SOM    :G         
                  CO2 387ppm  NSWIT   :1  EVAP :S  SOIL   :2  STEMP  :D         
 MANAGEMENT OPT : PLANTING:R  IRRIG   :N  FERT :D  RESIDUE:R  HARVEST:M         
                  WEATHER :M  TILLAGE :N                                        
                                                                                
*SUMMARY OF SOIL AND GENETIC INPUT PARAMETERS                                   
                                                                                
   SOIL LOWER UPPER   SAT  EXTR  INIT   ROOT   BULK     pH    NO3    NH4    ORG 
  DEPTH LIMIT LIMIT    SW    SW    SW   DIST   DENS                          C  
   cm   cm3/cm3    cm3/cm3    cm3/cm3         g/cm3         ugN/g  ugN/g     %  
------------------------------------------------------------------------------- 
  0-  5 0.215 0.331 0.341 0.116 0.331   1.00   1.68   6.70   0.00   0.00   0.75 
  5- 15 0.215 0.331 0.341 0.116 0.331   1.00   1.68   6.70   0.00   0.00   0.75 
 15- 25 0.215 0.331 0.341 0.116 0.331   1.00   1.68   6.70   0.00   0.00   0.75 
 25- 35 0.181 0.291 0.364 0.110 0.291   0.50   1.61   7.20   0.00   0.00   0.53 
 35- 45 0.181 0.291 0.364 0.110 0.291   0.50   1.61   7.20   0.00   0.00   0.53 
 45- 67 0.096 0.169 0.404 0.073 0.169   0.27   1.51   7.00   0.00   0.00   0.05 
 67- 90 0.096 0.169 0.404 0.073 0.169   0.27   1.51   7.00   0.00   0.00   0.05 
                                                                                
TOT- 90  13.3  21.7  34.0   8.4  21.7  <--cm   -  kg/ha-->    0.0    0.0  51964 
SOIL ALBEDO    : 0.09      EVAPORATION LIMIT : 6.00         MIN. FACTOR  : 1.00 
RUNOFF CURVE # :76.00      DRAINAGE RATE     : 0.60         FERT. FACTOR : 1.00 
                                                                                
 Maize      CULTIVAR :CI0001-P30F35             ECOTYPE :IB0001                 
 P1     : 200.00  P2     : 0.3000  P5     : 925.00                              
 G2     : 954.00  G3     :  7.000  PHINT  : 50.000                              


*SIMULATED CROP AND SOIL STATUS AT MAIN DEVELOPMENT STAGES

 RUN NO.     8     P05/07                  

        CROP GROWTH     BIOMASS         LEAF   CROP N     STRESS      STRESS                                           
   DATE  AGE STAGE        kg/ha    LAI   NUM  kg/ha  %   H2O  Nitr Phos1 Phos2  RSTG                                   
 ------  --- ----------   -----  -----  ----  ---  ---  ----  ----  ----  ----  ----                                   
  7 APR    0 Start Sim        0   0.00   0.0    0  0.0  0.00  0.00  0.00  0.00     7
  7 MAY    0 Sowing           0   0.00   0.0    0  0.0  0.00  0.00  0.00  0.00     8
  8 MAY    1 Germinate        0   0.00   0.0    0  0.0  0.00  0.00  0.00  0.00     9
 13 MAY    6 Emergence       25   0.00   2.0    1  4.4  0.00  0.01  0.00  0.00     1
 24 MAY   17 End Juveni      75   0.16   6.6    2  3.3  0.00  0.00  0.00  0.00     2
 31 MAY   24 Floral Ini     234   0.45   9.1    8  3.6  0.00  0.00  0.00  0.00     3
  8 JUL   62 75% Silkin    5364   2.77  19.3  103  1.9  0.03  0.00  0.00  0.00     4
 18 JUL   72 Beg Gr Fil    6702   2.22  19.3  104  1.5  0.54  0.00  0.00  0.00     5
 27 AUG  112 End Gr Fil    8968   0.62  19.3  104  1.2  0.67  0.00  0.00  0.00     6
 30 AUG  115 Maturity      8968   0.62  19.3  104  1.2  0.45  0.00  0.00  0.00    10
[...]
 NITROGEN BAL.  : SOIL-N & N-UPTAKE SIMULATION; NO N-FIXATION                   
 N-FERTILIZER   :      161 kg/ha IN     5 APPLICATIONS                          
 RESIDUE/MANURE : INITIAL :     0 kg/ha ;       0 kg/ha IN     0 APPLICATIONS   
 ENVIRONM. OPT. : DAYL=    0.00  SRAD=    0.00  TMAX=    0.00  TMIN=    0.00    
                  RAIN=    0.00  CO2 =    0.00  DEW =    0.00  WIND=    0.00    
 SIMULATION OPT : WATER   :Y  NITROGEN:Y  N-FIX:N  PHOSPH :N  PESTS  :N         
                  PHOTO   :C  ET      :R  INFIL:S  HYDROL :R  SOM    :G         
                  CO2 388ppm  NSWIT   :1  EVAP :S  SOIL   :2  STEMP  :D         
 MANAGEMENT OPT : PLANTING:R  IRRIG   :N  FERT :D  RESIDUE:R  HARVEST:M         
                  WEATHER :M  TILLAGE :N                                        
                                                                                
*SUMMARY OF SOIL AND GENETIC INPUT PARAMETERS                                   
                                                                                
   SOIL LOWER UPPER   SAT  EXTR  INIT   ROOT   BULK     pH    NO3    NH4    ORG 
  DEPTH LIMIT LIMIT    SW    SW    SW   DIST   DENS                          C  
   cm   cm3/cm3    cm3/cm3    cm3/cm3         g/cm3         ugN/g  ugN/g     %  
------------------------------------------------------------------------------- 
  0-  5 0.215 0.331 0.341 0.116 0.331   1.00   1.68   6.70   0.00   0.00   0.75 
  5- 15 0.215 0.331 0.341 0.116 0.331   1.00   1.68   6.70   0.00   0.00   0.75 
 15- 25 0.215 0.331 0.341 0.116 0.331   1.00   1.68   6.70   0.00   0.00   0.75 
 25- 35 0.181 0.291 0.364 0.110 0.291   0.50   1.61   7.20   0.00   0.00   0.53 
 35- 45 0.181 0.291 0.364 0.110 0.291   0.50   1.61   7.20   0.00   0.00   0.53 
 45- 67 0.096 0.169 0.404 0.073 0.169   0.27   1.51   7.00   0.00   0.00   0.05 
 67- 90 0.096 0.169 0.404 0.073 0.169   0.27   1.51   7.00   0.00   0.00   0.05 
                                                                                
TOT- 90  13.3  21.7  34.0   8.4  21.7  <--cm   -  kg/ha-->    0.0    0.0  51964 
SOIL ALBEDO    : 0.09      EVAPORATION LIMIT : 6.00         MIN. FACTOR  : 1.00 
RUNOFF CURVE # :76.00      DRAINAGE RATE     : 0.60         FERT. FACTOR : 1.00 
                                                                                
 Maize      CULTIVAR :CI0001-P30F35             ECOTYPE :IB0001                 
 P1     : 200.00  P2     : 0.3000  P5     : 925.00                              
 G2     : 954.00  G3     :  7.000  PHINT  : 50.000                              


*SIMULATED CROP AND SOIL STATUS AT MAIN DEVELOPMENT STAGES

 RUN NO.    35     P12/14                  

        CROP GROWTH     BIOMASS         LEAF   CROP N     STRESS      STRESS                                           
   DATE  AGE STAGE        kg/ha    LAI   NUM  kg/ha  %   H2O  Nitr Phos1 Phos2  RSTG                                   
 ------  --- ----------   -----  -----  ----  ---  ---  ----  ----  ----  ----  ----                                   
 14 NOV    0 Start Sim        0   0.00   0.0    0  0.0  0.00  0.00  0.00  0.00     7
 14 DEC    0 Sowing           0   0.00   0.0    0  0.0  0.00  0.00  0.00  0.00     8
 15 DEC    1 Germinate        0   0.00   0.0    0  0.0  0.00  0.00  0.00  0.00     9
 20 DEC    6 Emergence       25   0.00   2.0    1  4.4  0.00  0.01  0.00  0.00     1
 31 DEC   17 End Juveni      52   0.11   6.5    2  3.4  0.00  0.00  0.00  0.00     2
  4 JAN   21 Floral Ini     114   0.24   7.9    4  3.7  0.00  0.00  0.00  0.00     3
  3 FEB   51 75% Silkin    1949   0.79  16.7   14  0.7  0.29  0.51  0.00  0.00     4
 13 FEB   61 Beg Gr Fil    2141   0.54  16.7   39  1.8  0.76  0.49  0.00  0.00     5
 22 MAR   98 End Gr Fil    2848   0.18  16.7   39  1.4  0.66  0.00  0.00  0.00     6
 25 MAR  101 Maturity      2848   0.18  16.7   39  1.4  0.52  0.00  0.00  0.00    10
 25 MAR  101 Harvest       2848   0.18  16.7   39  1.4  0.00  0.00  0.00  0.00    10


*MAIN GROWTH AND DEVELOPMENT VARIABLES

@     VARIABLE                                         SIMULATED     MEASURED
      --------                                         ---------     --------
      Anthesis day (dap)                                      51          -99
      Physiological maturity day (dap)                       101          -99
      Yield at harvest maturity (kg [dm]/ha)                1047          -99
      Number at maturity (no/m2)                             634          -99
      Unit wt at maturity (g [dm]/unit)                   0.1651          -99
      Number at maturity (no/unit)                         111.1          -99
      Tops weight at maturity (kg [dm]/ha)                  2848          -99
      By-product produced (stalk) at maturity (kg[dm]/ha    1826          -99
      Leaf area index, maximum                              1.12          -99
      Harvest index at maturity                            0.368          -99
      Grain N at maturity (kg/ha)                             19          -99
      Tops N at maturity (kg/ha)                              39          -99
      Stem N at maturity (kg/ha)                              18          -99
      Grain N at maturity (%)                                1.8          -99
      Tops weight at anthesis (kg [dm]/ha)                  1913          -99
      Tops N at anthesis (kg/ha)                              14          -99
      Leaf number per stem at maturity                     16.65          -99
      Emergence day (dap)                                      6          -99


*ENVIRONMENTAL AND STRESS FACTORS

 |-----Development Phase------|--------------------------------------Environment--------------------------------------|-----------------Stress-----------------|
                              |---------------Average--------------|-----Cumulative-----|--------Count of days--------|          (0=Min, 1=Max Stress)         |
                         Time  Temp  Temp  Temp Solar Photop                Evapo    Pot TMIN TMIN TMAX TMAX TMAX RAIN|----Water----|---Nitrogen--|-Phosphorus-|
                         Span   Max   Min  Mean   Rad  [day]    CO2   Rain  Trans     ET   <    <    >    >    >    >   Photo         Photo         Photo
                         days    邂    邂    邂 MJ/m2     hr    ppm     mm     mm     mm  0邂  2邂 30邂 32邂 34邂  0mm  synth Growth  synth Growth  synth Growth
----------------------------------------------------------------------------------------------------------------------------------------------------------------
 Emergence-End Juvenile    11  31.1  19.2  25.1  16.4   0.00  388.5   30.6   33.6   50.8    0    0    7    3    0    4  0.000  0.000  0.002  0.005  0.000  0.000
 End Juvenil-Floral Init    4  30.1  18.2  24.1  16.6   0.00  388.5    0.0    5.6   18.0    0    0    1    0    0    0  0.000  0.000  0.001  0.002  0.000  0.000
 Floral Init-End Lf Grow   30  33.2  18.8  26.0  18.6   0.00  388.7    1.7   61.0  148.6    0    0   28   20    9    3  0.172  0.266  0.306  0.482  0.000  0.000
 End Lf Grth-Beg Grn Fil   10  33.0  19.4  26.2  17.3   0.00  388.8   14.3   12.0   46.8    0    0    8    7    5    3  0.621  0.748  0.402  0.568  0.000  0.000
 Grain Filling Phase       37  33.6  20.3  27.0  16.0   4.46  389.0   44.5   43.9  166.7    0    0   35   31   13   11  0.606  0.684  0.000  0.000  0.000  0.000


 Planting to Harvest      101  32.9  19.5  26.2  17.1   2.00  388.8  109.9  170.8  477.5    0    0   85   67   29   24  0.339  0.413  0.131  0.200  0.000  0.000
----------------------------------------------------------------------------------------------------------------------------------------------------------------


*Resource Productivity
 Growing season length: 101 days 

 Precipitation during growing season       109.9 mm[rain]
   Dry Matter Productivity                  2.59 kg[DM]/m3[rain]          =   25.9 kg[DM]/ha per mm[rain]
   Yield Productivity                       0.95 kg[grain yield]/m3[rain] =    9.5 kg[yield]/ha per mm[rain]

 Evapotranspiration during growing season  170.8 mm[ET]
   Dry Matter Productivity                  1.67 kg[DM]/m3[ET]            =   16.7 kg[DM]/ha per mm[ET]
   Yield Productivity                       0.61 kg[grain yield]/m3[ET]   =    6.1 kg[yield]/ha per mm[ET]

 Transpiration during growing season        69.7 mm[EP]
   Dry Matter Productivity                  4.08 kg[DM]/m3[EP]            =   40.8 kg[DM]/ha per mm[EP]
   Yield Productivity                       1.50 kg[grain yield]/m3[EP]   =   15.0 kg[yield]/ha per mm[EP]

 N applied during growing season            161. kg[N applied]/ha
   Dry Matter Productivity                  17.7 kg[DM]/kg[N applied]
   Yield Productivity                        6.5 kg[yield]/kg[N applied]

 N uptake during growing season               44 kg[N uptake]/ha
   Dry Matter Productivity                  64.7 kg[DM]/kg[N uptake]
   Yield Productivity                       23.8 kg[yield]/kg[N uptake]

--------------------------------------------------------------------------------------------------------------

                     Maize YIELD :     1047 kg/ha    [Dry weight] 

**************************************************************************************************************

*DSSAT Cropping System Model Ver. 4.6.1.000 -release      OCT 24, 2017; 10:49:22
                                                                                
*RUN  36        : P12/19                    MZCER046 ANBU2009   36              
 MODEL          : MZCER046 - Maize                                              
 EXPERIMENT     : ANBU2009 MZ  Analisis a침os de bajo rendimiento Buga          
 DATA PATH      : C:\DSSAT46\maize\                                             
 TREATMENT 36   : P12/19                    MZCER046                            
                                                                                
                                                                                
 CROP           : Maize            CULTIVAR : P30F35           ECOTYPE :IB0001  
 STARTING DATE  : NOV 19 2009                                                   
 PLANTING DATE  : DEC 19 2009        PLANTS/m2 :  6.2     ROW SPACING :  80.cm  
 WEATHER        : CUNI   2009                                                   
 SOIL           : CCBUGA2017     TEXTURE : CL    -   Suelo Buga MADR Fase I     
 SOIL INITIAL C : DEPTH: 90cm EXTR. H2O: 83.9mm  NO3:  0.0kg/ha  NH4:  0.0kg/ha 
 WATER BALANCE  : RAINFED                                                       
 IRRIGATION     : NOT IRRIGATED                                                 
 NITROGEN BAL.  : SOIL-N & N-UPTAKE SIMULATION; NO N-FIXATION                   
 N-FERTILIZER   :      161 kg/ha IN     5 APPLICATIONS                          
 RESIDUE/MANURE : INITIAL :     0 kg/ha ;       0 kg/ha IN     0 APPLICATIONS   
 ENVIRONM. OPT. : DAYL=    0.00  SRAD=    0.00  TMAX=    0.00  TMIN=    0.00    
                  RAIN=    0.00  CO2 =    0.00  DEW =    0.00  WIND=    0.00    
 SIMULATION OPT : WATER   :Y  NITROGEN:Y  N-FIX:N  PHOSPH :N  PESTS  :N         
                  PHOTO   :C  ET      :R  INFIL:S  HYDROL :R  SOM    :G         
                  CO2 388ppm  NSWIT   :1  EVAP :S  SOIL   :2  STEMP  :D         
 MANAGEMENT OPT : PLANTING:R  IRRIG   :N  FERT :D  RESIDUE:R  HARVEST:M         
                  WEATHER :M  TILLAGE :N                                        
                                                                                
*SUMMARY OF SOIL AND GENETIC INPUT PARAMETERS                                   
                                                                                
   SOIL LOWER UPPER   SAT  EXTR  INIT   ROOT   BULK     pH    NO3    NH4    ORG 
  DEPTH LIMIT LIMIT    SW    SW    SW   DIST   DENS                          C  
   cm   cm3/cm3    cm3/cm3    cm3/cm3         g/cm3         ugN/g  ugN/g     %  
------------------------------------------------------------------------------- 
  0-  5 0.215 0.331 0.341 0.116 0.331   1.00   1.68   6.70   0.00   0.00   0.75 
  5- 15 0.215 0.331 0.341 0.116 0.331   1.00   1.68   6.70   0.00   0.00   0.75 
 15- 25 0.215 0.331 0.341 0.116 0.331   1.00   1.68   6.70   0.00   0.00   0.75 
 25- 35 0.181 0.291 0.364 0.110 0.291   0.50   1.61   7.20   0.00   0.00   0.53 
 35- 45 0.181 0.291 0.364 0.110 0.291   0.50   1.61   7.20   0.00   0.00   0.53 
 45- 67 0.096 0.169 0.404 0.073 0.169   0.27   1.51   7.00   0.00   0.00   0.05 
 67- 90 0.096 0.169 0.404 0.073 0.169   0.27   1.51   7.00   0.00   0.00   0.05 
                                                                                
TOT- 90  13.3  21.7  34.0   8.4  21.7  <--cm   -  kg/ha-->    0.0    0.0  51964 
SOIL ALBEDO    : 0.09      EVAPORATION LIMIT : 6.00         MIN. FACTOR  : 1.00 
RUNOFF CURVE # :76.00      DRAINAGE RATE     : 0.60         FERT. FACTOR : 1.00 
                                                                                
 Maize      CULTIVAR :CI0001-P30F35             ECOTYPE :IB0001                 
 P1     : 200.00  P2     : 0.3000  P5     : 925.00                              
 G2     : 954.00  G3     :  7.000  PHINT  : 50.000                              


*SIMULATED CROP AND SOIL STATUS AT MAIN DEVELOPMENT STAGES

 RUN NO.    36     P12/19                  

        CROP GROWTH     BIOMASS         LEAF   CROP N     STRESS      STRESS                                           
   DATE  AGE STAGE        kg/ha    LAI   NUM  kg/ha  %   H2O  Nitr Phos1 Phos2  RSTG                                   
 ------  --- ----------   -----  -----  ----  ---  ---  ----  ----  ----  ----  ----                                   
 19 NOV    0 Start Sim        0   0.00   0.0    0  0.0  0.00  0.00  0.00  0.00     7
 19 DEC    0 Sowing           0   0.00   0.0    0  0.0  0.00  0.00  0.00  0.00     8
 20 DEC    1 Germinate        0   0.00   0.0    0  0.0  0.00  0.00  0.00  0.00     9
 25 DEC    6 Emergence       25   0.00   2.1    1  4.4  0.00  0.01  0.00  0.00     1
  5 JAN   17 End Juveni      57   0.13   6.5    2  3.3  0.00  0.00  0.00  0.00     2
  9 JAN   21 Floral Ini     138   0.29   8.1    5  3.7  0.00  0.00  0.00  0.00     3
  9 FEB   52 75% Silkin    1906   0.75  16.9   34  1.8  0.32  0.54  0.00  0.00     4
 18 FEB   61 Beg Gr Fil    2050   0.54  16.9   41  2.0  0.82  0.01  0.00  0.00     5
 27 MAR   98 End Gr Fil    2887   0.20  16.9   41  1.4  0.62  0.00  0.00  0.00     6
 30 MAR  101 Maturity      2887   0.20  16.9   41  1.4  0.00  0.00  0.00  0.00    10
 30 MAR  101 Harvest       2887   0.20  16.9   41  1.4  0.00  0.00  0.00  0.00    10


*MAIN GROWTH AND DEVELOPMENT VARIABLES

@     VARIABLE                                         SIMULATED     MEASURED
      --------                                         ---------     --------
      Anthesis day (dap)                                      52          -99
      Physiological maturity day (dap)                       101          -99
      Yield at harvest maturity (kg [dm]/ha)                 988          -99
      Number at maturity (no/m2)                             578          -99
      Unit wt at maturity (g [dm]/unit)                   0.1711          -99
      Number at maturity (no/unit)                         103.6          -99
      Tops weight at maturity (kg [dm]/ha)                  2887          -99
      By-product produced (stalk) at maturity (kg[dm]/ha    1924          -99
      Leaf area index, maximum                              1.09          -99
      Harvest index at maturity                            0.342          -99
      Grain N at maturity (kg/ha)                             18          -99
      Tops N at maturity (kg/ha)                              41          -99
      Stem N at maturity (kg/ha)                              21          -99
      Grain N at maturity (%)                                1.8          -99
      Tops weight at anthesis (kg [dm]/ha)                  1892          -99
      Tops N at anthesis (kg/ha)                              13          -99
      Leaf number per stem at maturity                     16.92          -99
      Emergence day (dap)                                      6          -99


*ENVIRONMENTAL AND STRESS FACTORS

 |-----Development Phase------|--------------------------------------Environment--------------------------------------|-----------------Stress-----------------|
                              |---------------Average--------------|-----Cumulative-----|--------Count of days--------|          (0=Min, 1=Max Stress)         |
                         Time  Temp  Temp  Temp Solar Photop                Evapo    Pot TMIN TMIN TMAX TMAX TMAX RAIN|----Water----|---Nitrogen--|-Phosphorus-|
                         Span   Max   Min  Mean   Rad  [day]    CO2   Rain  Trans     ET   <    <    >    >    >    >   Photo         Photo         Photo
                         days    邂    邂    邂 MJ/m2     hr    ppm     mm     mm     mm  0邂  2邂 30邂 32邂 34邂  0mm  synth Growth  synth Growth  synth Growth
----------------------------------------------------------------------------------------------------------------------------------------------------------------
 Emergence-End Juvenile    11  31.0  18.8  24.9  16.8   0.00  388.5   21.6   24.1   51.8    0    0    7    3    0    3  0.000  0.000  0.002  0.004  0.000  0.000
 End Juvenil-Floral Init    4  33.1  18.2  25.7  19.4   0.00  388.5    0.3    4.8   21.5    0    0    4    3    0    1  0.000  0.000  0.001  0.003  0.000  0.000
 Floral Init-End Lf Grow   31  33.3  19.0  26.2  18.1   0.00  388.7    4.4   57.9  150.3    0    0   28   21   12    4  0.208  0.303  0.331  0.518  0.000  0.000
 End Lf Grth-Beg Grn Fil    9  33.0  19.8  26.4  17.2   0.00  388.9   15.5   13.8   41.8    0    0    8    7    2    2  0.668  0.780  0.070  0.104  0.000  0.000
 Grain Filling Phase       37  33.7  20.4  27.0  16.6   6.16  389.1   60.7   47.8  174.0    0    0   35   31   15   12  0.552  0.644  0.000  0.000  0.000  0.000


 Planting to Harvest      101  33.0  19.6  26.3  17.1   2.67  388.8  121.5  177.4  477.5    0    0   87   68   29   24  0.326  0.398  0.108  0.169  0.000  0.000
----------------------------------------------------------------------------------------------------------------------------------------------------------------


*Resource Productivity
 Growing season length: 101 days 

 Precipitation during growing season       121.5 mm[rain]
   Dry Matter Productivity                  2.38 kg[DM]/m3[rain]          =   23.8 kg[DM]/ha per mm[rain]
   Yield Productivity                       0.81 kg[grain yield]/m3[rain] =    8.1 kg[yield]/ha per mm[rain]

 Evapotranspiration during growing season  177.4 mm[ET]
   Dry Matter Productivity                  1.63 kg[DM]/m3[ET]            =   16.3 kg[DM]/ha per mm[ET]
   Yield Productivity                       0.56 kg[grain yield]/m3[ET]   =    5.6 kg[yield]/ha per mm[ET]

 Transpiration during growing season        70.1 mm[EP]
   Dry Matter Productivity                  4.12 kg[DM]/m3[EP]            =   41.2 kg[DM]/ha per mm[EP]
   Yield Productivity                       1.41 kg[grain yield]/m3[EP]   =   14.1 kg[yield]/ha per mm[EP]

 N applied during growing season            161. kg[N applied]/ha
   Dry Matter Productivity                  17.9 kg[DM]/kg[N applied]
   Yield Productivity                        6.1 kg[yield]/kg[N applied]

 N uptake during growing season               47 kg[N uptake]/ha
   Dry Matter Productivity                  61.4 kg[DM]/kg[N uptake]
   Yield Productivity                       21.0 kg[yield]/kg[N uptake]

--------------------------------------------------------------------------------------------------------------

                     Maize YIELD :      988 kg/ha    [Dry weight] 

**************************************************************************************************************
