*SIMULATION OVERVIEW FILE

*DSSAT Cropping System Model Ver. 4.6.1.000 -release      OCT 02, 2017; 14:01:45
                                                                                
*RUN   1        : P04/02                    MZCER046 ANBU2009    1              
 MODEL          : MZCER046 - Maize                                              
 EXPERIMENT     : ANBU2009 MZ  Analisis a침os de bajo rendimiento Buga          
 DATA PATH      : C:\DSSAT46\maize\                                             
 TREATMENT  1   : P04/02                    MZCER046                            
                                                                                
                                                                                
 CROP           : Maize            CULTIVAR : P30F35           ECOTYPE :IB0001  
 STARTING DATE  : MAR  3 2009                                                   
 PLANTING DATE  : APR  2 2009        PLANTS/m2 :  6.2     ROW SPACING :  80.cm  
 WEATHER        : CUNI   2009                                                   
 SOIL           : CCBUGA2017     TEXTURE : CL    -   Suelo Buga MADR Fase I     
 SOIL INITIAL C : DEPTH: 90cm EXTR. H2O: 83.9mm  NO3:151.4kg/ha  NH4: 62.4kg/ha 
 WATER BALANCE  : RAINFED                                                       
 IRRIGATION     : NOT IRRIGATED                                                 
 NITROGEN BAL.  : SOIL-N & N-UPTAKE SIMULATION; NO N-FIXATION                   
 N-FERTILIZER   :      161 kg/ha IN     5 APPLICATIONS                          
 RESIDUE/MANURE : INITIAL :     0 kg/ha ;       0 kg/ha IN     0 APPLICATIONS   
 ENVIRONM. OPT. : DAYL=    0.00  SRAD=    0.00  TMAX=    0.00  TMIN=    0.00    
                  RAIN=    0.00  CO2 =    0.00  DEW =    0.00  WIND=    0.00    
 SIMULATION OPT : WATER   :Y  NITROGEN:Y  N-FIX:N  PHOSPH :N  PESTS  :N         
                  PHOTO   :C  ET      :R  INFIL:S  HYDROL :R  SOM    :G         
                  CO2 387ppm  NSWIT   :1  EVAP :S  SOIL   :2  STEMP  :D         
 MANAGEMENT OPT : PLANTING:R  IRRIG   :N  FERT :D  RESIDUE:R  HARVEST:M         
                  WEATHER :M  TILLAGE :N                                        
                                                                                
*SUMMARY OF SOIL AND GENETIC INPUT PARAMETERS                                   
                                                                                
   SOIL LOWER UPPER   SAT  EXTR  INIT   ROOT   BULK     pH    NO3    NH4    ORG 
  DEPTH LIMIT LIMIT    SW    SW    SW   DIST   DENS                          C  
   cm   cm3/cm3    cm3/cm3    cm3/cm3         g/cm3         ugN/g  ugN/g     %  
------------------------------------------------------------------------------- 
  0-  5 0.215 0.331 0.341 0.116 0.319   1.00   1.68   6.70  11.90   4.21   0.75 
  5- 15 0.215 0.331 0.341 0.116 0.319   1.00   1.68   6.70  11.90   4.21   0.75 
 15- 25 0.215 0.331 0.341 0.116 0.319   1.00   1.68   6.70  11.90   4.21   0.75 
 25- 35 0.181 0.291 0.364 0.110 0.331   0.50   1.61   7.20  12.15   4.32   0.53 
 35- 45 0.181 0.291 0.364 0.110 0.344   0.50   1.61   7.20  12.40   4.44   0.53 
 45- 67 0.096 0.169 0.404 0.073 0.290   0.27   1.51   7.00  10.67   4.47   0.05 
 67- 90 0.096 0.169 0.404 0.073 0.195   0.27   1.51   7.00   7.63   4.53   0.05 
                                                                                
TOT- 90  13.3  21.7  34.0   8.4  25.6  <--cm   -  kg/ha-->  151.4   62.4  51964 
SOIL ALBEDO    : 0.09      EVAPORATION LIMIT : 6.00         MIN. FACTOR  : 1.00 
RUNOFF CURVE # :76.00      DRAINAGE RATE     : 0.60         FERT. FACTOR : 1.00 
                                                                                
 Maize      CULTIVAR :CI0001-P30F35             ECOTYPE :IB0001                 
 P1     : 212.00  P2     : 0.3000  P5     : 925.00                              
 G2     : 954.00  G3     :  7.000  PHINT  : 50.000                              


*SIMULATED CROP AND SOIL STATUS AT MAIN DEVELOPMENT STAGES

 RUN NO.     1     P04/02                  

        CROP GROWTH     BIOMASS         LEAF   CROP N     STRESS      STRESS                                           
   DATE  AGE STAGE        kg/ha    LAI   NUM  kg/ha  %   H2O  Nitr Phos1 Phos2  RSTG                                   
 ------  --- ----------   -----  -----  ----  ---  ---  ----  ----  ----  ----  ----                                   
  3 MAR    0 Start Sim        0   0.00   0.0    0  0.0  0.00  0.00  0.00  0.00     7
  2 APR    0 Sowing           0   0.00   0.0    0  0.0  0.00  0.00  0.00  0.00     8
  3 APR    1 Germinate        0   0.00   0.0    0  0.0  0.00  0.00  0.00  0.00     9
  8 APR    6 Emergence       25   0.00   2.0    1  4.4  0.00  0.01  0.00  0.00     1
 19 APR   17 End Juveni      51   0.11   6.7    2  3.3  0.00  0.00  0.00  0.00     2
 25 APR   23 Floral Ini     163   0.33   8.9    6  3.6  0.00  0.00  0.00  0.00     3
 30 MAY   58 75% Silkin    4561   2.36  18.9   94  2.1  0.16  0.00  0.00  0.00     4
  9 JUN   68 Beg Gr Fil    6843   2.35  18.9   95  1.4  0.07  0.00  0.00  0.00     5
 23 JUL  112 End Gr Fil   14809   1.14  18.9  189  1.3  0.14  0.00  0.00  0.00     6
 26 JUL  115 Maturity     14809   1.14  18.9  189  1.3  0.84  0.00  0.00  0.00    10
 26 JUL  115 Harvest      14809   1.14  18.9  189  1.3  0.00  0.00  0.00  0.00    10


*MAIN GROWTH AND DEVELOPMENT VARIABLES

@     VARIABLE                                         SIMULATED     MEASURED
      --------                                         ---------     --------
      Anthesis day (dap)                                      58          -99
      Physiological maturity day (dap)                       115          -99
      Yield at harvest maturity (kg [dm]/ha)                8425          -99
      Number at maturity (no/m2)                            2880          -99
      Unit wt at maturity (g [dm]/unit)                   0.2926          -99
      Number at maturity (no/unit)                         464.5          -99
      Tops weight at maturity (kg [dm]/ha)                 14809          -99
      By-product produced (stalk) at maturity (kg[dm]/ha    6427          -99
      Leaf area index, maximum                              2.65          -99
      Harvest index at maturity                            0.569          -99
      Grain N at maturity (kg/ha)                            145          -99
      Tops N at maturity (kg/ha)                             189          -99
      Stem N at maturity (kg/ha)                              44          -99
      Grain N at maturity (%)                                1.7          -99
      Tops weight at anthesis (kg [dm]/ha)                  4348          -99
      Tops N at anthesis (kg/ha)                              94          -99
      Leaf number per stem at maturity                     18.91          -99
      Emergence day (dap)                                      6          -99


*ENVIRONMENTAL AND STRESS FACTORS

 |-----Development Phase------|--------------------------------------Environment--------------------------------------|-----------------Stress-----------------|
                              |---------------Average--------------|-----Cumulative-----|--------Count of days--------|          (0=Min, 1=Max Stress)         |
                         Time  Temp  Temp  Temp Solar Photop                Evapo    Pot TMIN TMIN TMAX TMAX TMAX RAIN|----Water----|---Nitrogen--|-Phosphorus-|
                         Span   Max   Min  Mean   Rad  [day]    CO2   Rain  Trans     ET   <    <    >    >    >    >   Photo         Photo         Photo
                         days    邂    邂    邂 MJ/m2     hr    ppm     mm     mm     mm  0邂  2邂 30邂 32邂 34邂  0mm  synth Growth  synth Growth  synth Growth
----------------------------------------------------------------------------------------------------------------------------------------------------------------
 Emergence-End Juvenile    11  31.3  19.5  25.4  17.7  21.65  386.8   18.3   27.7   55.2    0    0   10    3    0    6  0.000  0.000  0.002  0.004  0.000  0.000
 End Juvenil-Floral Init    6  31.1  20.0  25.5  13.2  24.00  386.9    0.0    7.4   22.0    0    0    4    0    0    0  0.000  0.000  0.001  0.001  0.000  0.000
 Floral Init-End Lf Grow   35  31.4  19.0  25.2  16.3  24.00  387.0   83.1  112.6  144.7    0    0   25   10    2   16  0.106  0.160  0.000  0.000  0.000  0.000
 End Lf Grth-Beg Grn Fil   10  31.8  19.3  25.5  17.6  24.00  387.1   83.5   42.9   43.5    0    0    8    4    1    5  0.009  0.067  0.000  0.000  0.000  0.000
 Grain Filling Phase       44  30.0  18.3  24.2  15.9  24.00  387.3  109.8  145.7  168.8    0    0   18    5    0   12  0.091  0.124  0.000  0.000  0.000  0.000


 Planting to Harvest      115  30.9  18.9  24.9  16.6  23.40  387.1  303.7  352.0  484.9    0    0   72   24    3   40  0.087  0.123  0.000  0.000  0.000  0.000
----------------------------------------------------------------------------------------------------------------------------------------------------------------


*Resource Productivity
 Growing season length: 115 days 

 Precipitation during growing season       303.7 mm[rain]
   Dry Matter Productivity                  4.88 kg[DM]/m3[rain]          =   48.8 kg[DM]/ha per mm[rain]
   Yield Productivity                       2.77 kg[grain yield]/m3[rain] =   27.7 kg[yield]/ha per mm[rain]

 Evapotranspiration during growing season  352.0 mm[ET]
   Dry Matter Productivity                  4.21 kg[DM]/m3[ET]            =   42.1 kg[DM]/ha per mm[ET]
   Yield Productivity                       2.39 kg[grain yield]/m3[ET]   =   23.9 kg[yield]/ha per mm[ET]

 Transpiration during growing season       226.1 mm[EP]
   Dry Matter Productivity                  6.55 kg[DM]/m3[EP]            =   65.5 kg[DM]/ha per mm[EP]
   Yield Productivity                       3.73 kg[grain yield]/m3[EP]   =   37.3 kg[yield]/ha per mm[EP]

 N applied during growing season            161. kg[N applied]/ha
   Dry Matter Productivity                  92.0 kg[DM]/kg[N applied]
   Yield Productivity                       52.3 kg[yield]/kg[N applied]

 N uptake during growing season              202 kg[N uptake]/ha
   Dry Matter Productivity                  73.3 kg[DM]/kg[N uptake]
   Yield Productivity                       41.7 kg[yield]/kg[N uptake]

--------------------------------------------------------------------------------------------------------------

                     Maize YIELD :     8425 kg/ha    [Dry weight] 

**************************************************************************************************************

*DSSAT Cropping System Model Ver. 4.6.1.000 -release      OCT 02, 2017; 14:01:45
                                                                                
*RUN   2        : P04/07                    MZCER046 ANBU2009    2              
 MODEL          : MZCER046 - Maize                                              
 EXPERIMENT     : ANBU2009 MZ  Analisis a침os de bajo rendimiento Buga          
 DATA PATH      : C:\DSSAT46\maize\                                             
 TREATMENT  2   : P04/07                    MZCER046                            
                                                                                
                                                                                
 CROP           : Maize            CULTIVAR : P30F35           ECOTYPE :IB0001  
 STARTING DATE  : MAR  8 2009                                                   
 PLANTING DATE  : APR  7 2009        PLANTS/m2 :  6.2     ROW SPACING :  80.cm  
 WEATHER        : CUNI   2009                                                   
 SOIL           : CCBUGA2017     TEXTURE : CL    -   Suelo Buga MADR Fase I     
 SOIL INITIAL C : DEPTH: 90cm EXTR. H2O: 83.9mm  NO3:151.4kg/ha  NH4: 62.4kg/ha 
 WATER BALANCE  : RAINFED                                                       
 IRRIGATION     : NOT IRRIGATED                                                 
 NITROGEN BAL.  : SOIL-N & N-UPTAKE SIMULATION; NO N-FIXATION                   
 N-FERTILIZER   :      161 kg/ha IN     5 APPLICATIONS                          
 RESIDUE/MANURE : INITIAL :     0 kg/ha ;       0 kg/ha IN     0 APPLICATIONS   
 ENVIRONM. OPT. : DAYL=    0.00  SRAD=    0.00  TMAX=    0.00  TMIN=    0.00    
                  RAIN=    0.00  CO2 =    0.00  DEW =    0.00  WIND=    0.00    
 SIMULATION OPT : WATER   :Y  NITROGEN:Y  N-FIX:N  PHOSPH :N  PESTS  :N         
                  PHOTO   :C  ET      :R  INFIL:S  HYDROL :R  SOM    :G         
                  CO2 387ppm  NSWIT   :1  EVAP :S  SOIL   :2  STEMP  :D         
 MANAGEMENT OPT : PLANTING:R  IRRIG   :N  FERT :D  RESIDUE:R  HARVEST:M         
                  WEATHER :M  TILLAGE :N                                        
                                                                                
*SUMMARY OF SOIL AND GENETIC INPUT PARAMETERS                                   
                                                                                
   SOIL LOWER UPPER   SAT  EXTR  INIT   ROOT   BULK     pH    NO3    NH4    ORG 
  DEPTH LIMIT LIMIT    SW    SW    SW   DIST   DENS                          C  
   cm   cm3/cm3    cm3/cm3    cm3/cm3         g/cm3         ugN/g  ugN/g     %  
------------------------------------------------------------------------------- 
  0-  5 0.215 0.331 0.341 0.116 0.319   1.00   1.68   6.70  11.90   4.21   0.75 
  5- 15 0.215 0.331 0.341 0.116 0.319   1.00   1.68   6.70  11.90   4.21   0.75 
 15- 25 0.215 0.331 0.341 0.116 0.319   1.00   1.68   6.70  11.90   4.21   0.75 
 25- 35 0.181 0.291 0.364 0.110 0.331   0.50   1.61   7.20  12.15   4.32   0.53 
 35- 45 0.181 0.291 0.364 0.110 0.344   0.50   1.61   7.20  12.40   4.44   0.53 
 45- 67 0.096 0.169 0.404 0.073 0.290   0.27   1.51   7.00  10.67   4.47   0.05 
 67- 90 0.096 0.169 0.404 0.073 0.195   0.27   1.51   7.00   7.63   4.53   0.05 
                                                                                
TOT- 90  13.3  21.7  34.0   8.4  25.6  <--cm   -  kg/ha-->  151.4   62.4  51964 
SOIL ALBEDO    : 0.09      EVAPORATION LIMIT : 6.00         MIN. FACTOR  : 1.00 
RUNOFF CURVE # :76.00      DRAINAGE RATE     : 0.60         FERT. FACTOR : 1.00 
                                                                                
 Maize      CULTIVAR :CI0001-P30F35             ECOTYPE :IB0001                 
 P1     : 212.00  P2     : 0.3000  P5     : 925.00                              
 G2     : 954.00  G3     :  7.000  PHINT  : 50.000                              


*SIMULATED CROP AND SOIL STATUS AT MAIN DEVELOPMENT STAGES

 RUN NO.     2     P04/07                  

        CROP GROWTH     BIOMASS         LEAF   CROP N     STRESS      STRESS                                           
   DATE  AGE STAGE        kg/ha    LAI   NUM  kg/ha  %   H2O  Nitr Phos1 Phos2  RSTG                                   
 ------  --- ----------   -----  -----  ----  ---  ---  ----  ----  ----  ----  ----                                   
  8 MAR    0 Start Sim        0   0.00   0.0    0  0.0  0.00  0.00  0.00  0.00     7
  7 APR    0 Sowing           0   0.00   0.0    0  0.0  0.00  0.00  0.00  0.00     8
  8 APR    1 Germinate        0   0.00   0.0    0  0.0  0.00  0.00  0.00  0.00     9
 13 APR    6 Emergence       25   0.00   2.1    1  4.4  0.00  0.01  0.00  0.00     1
 24 APR   17 End Juveni      56   0.12   6.7    2  3.3  0.00  0.00  0.00  0.00     2
  1 MAY   24 Floral Ini     213   0.41   9.3    8  3.6  0.00  0.00  0.00  0.00     3
  7 JUN   61 75% Silkin    5529   2.85  19.6  105  1.9  0.12  0.00  0.00  0.00     4
 17 JUN   71 Beg Gr Fil    7660   2.85  19.6  108  1.4  0.00  0.00  0.00  0.00     5
 31 JUL  115 End Gr Fil   14311   1.24  19.6  179  1.3  0.31  0.00  0.00  0.00     6
  2 AUG  117 Maturity     14311   1.24  19.6  179  1.3  0.96  0.00  0.00  0.00    10
  2 AUG  117 Harvest      14311   1.24  19.6  179  1.3  0.00  0.00  0.00  0.00    10


*MAIN GROWTH AND DEVELOPMENT VARIABLES

@     VARIABLE                                         SIMULATED     MEASURED
      --------                                         ---------     --------
      Anthesis day (dap)                                      61          -99
      Physiological maturity day (dap)                       117          -99
      Yield at harvest maturity (kg [dm]/ha)                7506          -99
      Number at maturity (no/m2)                            2820          -99
      Unit wt at maturity (g [dm]/unit)                   0.2662          -99
      Number at maturity (no/unit)                         454.9          -99
      Tops weight at maturity (kg [dm]/ha)                 14311          -99
      By-product produced (stalk) at maturity (kg[dm]/ha    6855          -99
      Leaf area index, maximum                              2.85          -99
      Harvest index at maturity                            0.525          -99
      Grain N at maturity (kg/ha)                            131          -99
      Tops N at maturity (kg/ha)                             179          -99
      Stem N at maturity (kg/ha)                              48          -99
      Grain N at maturity (%)                                1.7          -99
      Tops weight at anthesis (kg [dm]/ha)                  5286          -99
      Tops N at anthesis (kg/ha)                             105          -99
      Leaf number per stem at maturity                     19.60          -99
      Emergence day (dap)                                      6          -99


*ENVIRONMENTAL AND STRESS FACTORS

 |-----Development Phase------|--------------------------------------Environment--------------------------------------|-----------------Stress-----------------|
                              |---------------Average--------------|-----Cumulative-----|--------Count of days--------|          (0=Min, 1=Max Stress)         |
                         Time  Temp  Temp  Temp Solar Photop                Evapo    Pot TMIN TMIN TMAX TMAX TMAX RAIN|----Water----|---Nitrogen--|-Phosphorus-|
                         Span   Max   Min  Mean   Rad  [day]    CO2   Rain  Trans     ET   <    <    >    >    >    >   Photo         Photo         Photo
                         days    邂    邂    邂 MJ/m2     hr    ppm     mm     mm     mm  0邂  2邂 30邂 32邂 34邂  0mm  synth Growth  synth Growth  synth Growth
----------------------------------------------------------------------------------------------------------------------------------------------------------------
 Emergence-End Juvenile    11  31.7  19.6  25.6  16.2  23.71  386.9    8.2   16.9   50.4    0    0    9    3    0    2  0.000  0.000  0.002  0.004  0.000  0.000
 End Juvenil-Floral Init    7  31.6  19.9  25.7  16.7  24.00  386.9   16.1   11.9   32.8    0    0    4    3    2    4  0.000  0.000  0.000  0.001  0.000  0.000
 Floral Init-End Lf Grow   37  31.5  18.9  25.2  16.6  24.00  387.0  116.0  133.3  154.3    0    0   28   11    1   16  0.078  0.121  0.000  0.000  0.000  0.000
 End Lf Grth-Beg Grn Fil   10  29.9  19.1  24.5  15.8  24.00  387.1   71.7   37.4   37.6    0    0    4    0    0    6  0.000  0.000  0.000  0.000  0.000  0.000
 Grain Filling Phase       44  30.5  18.1  24.3  16.2  24.00  387.3   72.6  128.7  171.6    0    0   23   10    0    7  0.247  0.288  0.000  0.000  0.000  0.000


 Planting to Harvest      117  30.9  18.8  24.9  16.3  23.73  387.1  303.7  346.1  482.2    0    0   73   28    4   40  0.133  0.163  0.000  0.000  0.000  0.000
----------------------------------------------------------------------------------------------------------------------------------------------------------------


*Resource Productivity
 Growing season length: 117 days 

 Precipitation during growing season       303.7 mm[rain]
   Dry Matter Productivity                  4.71 kg[DM]/m3[rain]          =   47.1 kg[DM]/ha per mm[rain]
   Yield Productivity                       2.47 kg[grain yield]/m3[rain] =   24.7 kg[yield]/ha per mm[rain]

 Evapotranspiration during growing season  346.1 mm[ET]
   Dry Matter Productivity                  4.13 kg[DM]/m3[ET]            =   41.3 kg[DM]/ha per mm[ET]
   Yield Productivity                       2.17 kg[grain yield]/m3[ET]   =   21.7 kg[yield]/ha per mm[ET]

 Transpiration during growing season       226.3 mm[EP]
   Dry Matter Productivity                  6.32 kg[DM]/m3[EP]            =   63.2 kg[DM]/ha per mm[EP]
   Yield Productivity                       3.32 kg[grain yield]/m3[EP]   =   33.2 kg[yield]/ha per mm[EP]

 N applied during growing season            161. kg[N applied]/ha
   Dry Matter Productivity                  88.9 kg[DM]/kg[N applied]
   Yield Productivity                       46.6 kg[yield]/kg[N applied]

 N uptake during growing season              196 kg[N uptake]/ha
   Dry Matter Productivity                  73.0 kg[DM]/kg[N uptake]
   Yield Productivity                       38.3 kg[yield]/kg[N uptake]

--------------------------------------------------------------------------------------------------------------

                     Maize YIELD :     7506 kg/ha    [Dry weight] 

**************************************************************************************************************

*DSSAT Cropping System Model Ver. 4.6.1.000 -release      OCT 02, 2017; 14:01:45
                                                                                
*RUN   3        : P04/12                    MZCER046 ANBU2009    3              
 MODEL          : MZCER046 - Maize                                              
 EXPERIMENT     : ANBU2009 MZ  Analisis a침os de bajo rendimiento Buga          
 DATA PATH      : C:\DSSAT46\maize\                                             
 TREATMENT  3   : P04/12                    MZCER046                            
                                                                                
                                                                                
 CROP           : Maize            CULTIVAR : P30F35           ECOTYPE :IB0001  
 STARTING DATE  : MAR 13 2009                                                   
 PLANTING DATE  : APR 12 2009        PLANTS/m2 :  6.2     ROW SPACING :  80.cm  
 WEATHER        : CUNI   2009                                                   
 SOIL           : CCBUGA2017     TEXTURE : CL    -   Suelo Buga MADR Fase I     
 SOIL INITIAL C : DEPTH: 90cm EXTR. H2O: 83.9mm  NO3:151.4kg/ha  NH4: 62.4kg/ha 
 WATER BALANCE  : RAINFED                                                       
 IRRIGATION     : NOT IRRIGATED                                                 
 NITROGEN BAL.  : SOIL-N & N-UPTAKE SIMULATION; NO N-FIXATION                   
 N-FERTILIZER   :      161 kg/ha IN     5 APPLICATIONS                          
 RESIDUE/MANURE : INITIAL :     0 kg/ha ;       0 kg/ha IN     0 APPLICATIONS   
 ENVIRONM. OPT. : DAYL=    0.00  SRAD=    0.00  TMAX=    0.00  TMIN=    0.00    
                  RAIN=    0.00  CO2 =    0.00  DEW =    0.00  WIND=    0.00    
 SIMULATION OPT : WATER   :Y  NITROGEN:Y  N-FIX:N  PHOSPH :N  PESTS  :N         
                  PHOTO   :C  ET      :R  INFIL:S  HYDROL :R  SOM    :G         
                  CO2 387ppm  NSWIT   :1  EVAP :S  SOIL   :2  STEMP  :D         
 MANAGEMENT OPT : PLANTING:R  IRRIG   :N  FERT :D  RESIDUE:R  HARVEST:M         
                  WEATHER :M  TILLAGE :N                                        
                                                                                
*SUMMARY OF SOIL AND GENETIC INPUT PARAMETERS                                   
                                                                                
   SOIL LOWER UPPER   SAT  EXTR  INIT   ROOT   BULK     pH    NO3    NH4    ORG 
  DEPTH LIMIT LIMIT    SW    SW    SW   DIST   DENS                          C  
   cm   cm3/cm3    cm3/cm3    cm3/cm3         g/cm3         ugN/g  ugN/g     %  
------------------------------------------------------------------------------- 
  0-  5 0.215 0.331 0.341 0.116 0.319   1.00   1.68   6.70  11.90   4.21   0.75 
  5- 15 0.215 0.331 0.341 0.116 0.319   1.00   1.68   6.70  11.90   4.21   0.75 
 15- 25 0.215 0.331 0.341 0.116 0.319   1.00   1.68   6.70  11.90   4.21   0.75 
 25- 35 0.181 0.291 0.364 0.110 0.331   0.50   1.61   7.20  12.15   4.32   0.53 
 35- 45 0.181 0.291 0.364 0.110 0.344   0.50   1.61   7.20  12.40   4.44   0.53 
 45- 67 0.096 0.169 0.404 0.073 0.290   0.27   1.51   7.00  10.67   4.47   0.05 
 67- 90 0.096 0.169 0.404 0.073 0.195   0.27   1.51   7.00   7.63   4.53   0.05 
                                                                                
TOT- 90  13.3  21.7  34.0   8.4  25.6  <--cm   -  kg/ha-->  151.4   62.4  51964 
SOIL ALBEDO    : 0.09      EVAPORATION LIMIT : 6.00         MIN. FACTOR  : 1.00 
RUNOFF CURVE # :76.00      DRAINAGE RATE     : 0.60         FERT. FACTOR : 1.00 
                                                                                
 Maize      CULTIVAR :CI0001-P30F35             ECOTYPE :IB0001                 
 P1     : 212.00  P2     : 0.3000  P5     : 925.00                              
 G2     : 954.00  G3     :  7.000  PHINT  : 50.000                              


*SIMULATED CROP AND SOIL STATUS AT MAIN DEVELOPMENT STAGES

 RUN NO.     3     P04/12                  

        CROP GROWTH     BIOMASS         LEAF   CROP N     STRESS      STRESS                                           
   DATE  AGE STAGE        kg/ha    LAI   NUM  kg/ha  %   H2O  Nitr Phos1 Phos2  RSTG                                   
 ------  --- ----------   -----  -----  ----  ---  ---  ----  ----  ----  ----  ----                                   
 13 MAR    0 Start Sim        0   0.00   0.0    0  0.0  0.00  0.00  0.00  0.00     7
 12 APR    0 Sowing           0   0.00   0.0    0  0.0  0.00  0.00  0.00  0.00     8
 13 APR    1 Germinate        0   0.00   0.0    0  0.0  0.00  0.00  0.00  0.00     9
 18 APR    6 Emergence       25   0.00   2.1    1  4.4  0.00  0.01  0.00  0.00     1
 29 APR   17 End Juveni      57   0.13   6.8    2  3.5  0.00  0.00  0.00  0.00     2
  6 MAY   24 Floral Ini     168   0.34   9.2    6  3.6  0.00  0.00  0.00  0.00     3
 11 JUN   60 75% Silkin    5574   3.05  19.3  111  2.0  0.09  0.00  0.00  0.00     4
 22 JUN   71 Beg Gr Fil    7883   2.88  19.3  114  1.4  0.00  0.00  0.00  0.00     5
  4 AUG  114 End Gr Fil   13699   1.24  19.3  168  1.2  0.39  0.00  0.00  0.00     6
  6 AUG  116 Maturity     13699   1.24  19.3  168  1.2  0.96  0.00  0.00  0.00    10
  6 AUG  116 Harvest      13699   1.24  19.3  168  1.2  0.00  0.00  0.00  0.00    10


*MAIN GROWTH AND DEVELOPMENT VARIABLES

@     VARIABLE                                         SIMULATED     MEASURED
      --------                                         ---------     --------
      Anthesis day (dap)                                      60          -99
      Physiological maturity day (dap)                       116          -99
      Yield at harvest maturity (kg [dm]/ha)                6833          -99
      Number at maturity (no/m2)                            2759          -99
      Unit wt at maturity (g [dm]/unit)                   0.2477          -99
      Number at maturity (no/unit)                         445.0          -99
      Tops weight at maturity (kg [dm]/ha)                 13699          -99
      By-product produced (stalk) at maturity (kg[dm]/ha    6916          -99
      Leaf area index, maximum                              3.07          -99
      Harvest index at maturity                            0.499          -99
      Grain N at maturity (kg/ha)                            120          -99
      Tops N at maturity (kg/ha)                             168          -99
      Stem N at maturity (kg/ha)                              48          -99
      Grain N at maturity (%)                                1.8          -99
      Tops weight at anthesis (kg [dm]/ha)                  5359          -99
      Tops N at anthesis (kg/ha)                             108          -99
      Leaf number per stem at maturity                     19.33          -99
      Emergence day (dap)                                      6          -99


*ENVIRONMENTAL AND STRESS FACTORS

 |-----Development Phase------|--------------------------------------Environment--------------------------------------|-----------------Stress-----------------|
                              |---------------Average--------------|-----Cumulative-----|--------Count of days--------|          (0=Min, 1=Max Stress)         |
                         Time  Temp  Temp  Temp Solar Photop                Evapo    Pot TMIN TMIN TMAX TMAX TMAX RAIN|----Water----|---Nitrogen--|-Phosphorus-|
                         Span   Max   Min  Mean   Rad  [day]    CO2   Rain  Trans     ET   <    <    >    >    >    >   Photo         Photo         Photo
                         days    邂    邂    邂 MJ/m2     hr    ppm     mm     mm     mm  0邂  2邂 30邂 32邂 34邂  0mm  synth Growth  synth Growth  synth Growth
----------------------------------------------------------------------------------------------------------------------------------------------------------------
 Emergence-End Juvenile    11  32.2  20.0  26.1  15.6  24.00  386.9   14.4   12.1   49.1    0    0    8    4    2    2  0.000  0.000  0.002  0.004  0.000  0.000
 End Juvenil-Floral Init    7  29.9  19.6  24.7  14.6  24.00  386.9   36.6   25.4   28.2    0    0    3    1    0    6  0.000  0.000  0.001  0.002  0.000  0.000
 Floral Init-End Lf Grow   36  31.5  18.9  25.2  16.7  24.00  387.1  129.8  123.0  151.1    0    0   28   10    1   15  0.032  0.093  0.000  0.000  0.000  0.000
 End Lf Grth-Beg Grn Fil   11  29.5  18.6  24.1  15.1  24.00  387.2   27.6   39.0   39.2    0    0    3    0    0    4  0.000  0.000  0.000  0.000  0.000  0.000
 Grain Filling Phase       43  30.8  18.1  24.5  16.6  24.00  387.4   68.0  116.7  173.1    0    0   24   13    3    6  0.322  0.363  0.000  0.000  0.000  0.000


 Planting to Harvest      116  31.1  18.7  24.9  16.5  23.94  387.2  284.6  333.2  485.2    0    0   74   31    7   35  0.146  0.180  0.000  0.000  0.000  0.000
----------------------------------------------------------------------------------------------------------------------------------------------------------------


*Resource Productivity
 Growing season length: 116 days 

 Precipitation during growing season       284.6 mm[rain]
   Dry Matter Productivity                  4.81 kg[DM]/m3[rain]          =   48.1 kg[DM]/ha per mm[rain]
   Yield Productivity                       2.40 kg[grain yield]/m3[rain] =   24.0 kg[yield]/ha per mm[rain]

 Evapotranspiration during growing season  333.2 mm[ET]
   Dry Matter Productivity                  4.11 kg[DM]/m3[ET]            =   41.1 kg[DM]/ha per mm[ET]
   Yield Productivity                       2.05 kg[grain yield]/m3[ET]   =   20.5 kg[yield]/ha per mm[ET]

 Transpiration during growing season       221.1 mm[EP]
   Dry Matter Productivity                  6.20 kg[DM]/m3[EP]            =   62.0 kg[DM]/ha per mm[EP]
   Yield Productivity                       3.09 kg[grain yield]/m3[EP]   =   30.9 kg[yield]/ha per mm[EP]

 N applied during growing season            161. kg[N applied]/ha
   Dry Matter Productivity                  85.1 kg[DM]/kg[N applied]
   Yield Productivity                       42.4 kg[yield]/kg[N applied]

 N uptake during growing season              186 kg[N uptake]/ha
   Dry Matter Productivity                  73.6 kg[DM]/kg[N uptake]
   Yield Productivity                       36.7 kg[yield]/kg[N uptake]

--------------------------------------------------------------------------------------------------------------

                     Maize YIELD :     6833 kg/ha    [Dry weight] 

**************************************************************************************************************

*DSSAT Cropping System Model Ver. 4.6.1.000 -release      OCT 02, 2017; 14:01:45
                                                                                
*RUN   4        : P04/17                    MZCER046 ANBU2009    4              
 MODEL          : MZCER046 - Maize                                              
 EXPERIMENT     : ANBU2009 MZ  Analisis a침os de bajo rendimiento Buga          
 DATA PATH      : C:\DSSAT46\maize\                                             
 TREATMENT  4   : P04/17                    MZCER046                            
                                                                                
                                                                                
 CROP           : Maize            CULTIVAR : P30F35           ECOTYPE :IB0001  
 STARTING DATE  : MAR 18 2009                                                   
 PLANTING DATE  : APR 17 2009        PLANTS/m2 :  6.2     ROW SPACING :  80.cm  
 WEATHER        : CUNI   2009                                                   
 SOIL           : CCBUGA2017     TEXTURE : CL    -   Suelo Buga MADR Fase I     
 SOIL INITIAL C : DEPTH: 90cm EXTR. H2O: 83.9mm  NO3:151.4kg/ha  NH4: 62.4kg/ha 
 WATER BALANCE  : RAINFED                                                       
 IRRIGATION     : NOT IRRIGATED                                                 
 NITROGEN BAL.  : SOIL-N & N-UPTAKE SIMULATION; NO N-FIXATION                   
 N-FERTILIZER   :      161 kg/ha IN     5 APPLICATIONS                          
 RESIDUE/MANURE : INITIAL :     0 kg/ha ;       0 kg/ha IN     0 APPLICATIONS   
 ENVIRONM. OPT. : DAYL=    0.00  SRAD=    0.00  TMAX=    0.00  TMIN=    0.00    
                  RAIN=    0.00  CO2 =    0.00  DEW =    0.00  WIND=    0.00    
 SIMULATION OPT : WATER   :Y  NITROGEN:Y  N-FIX:N  PHOSPH :N  PESTS  :N         
                  PHOTO   :C  ET      :R  INFIL:S  HYDROL :R  SOM    :G         
                  CO2 387ppm  NSWIT   :1  EVAP :S  SOIL   :2  STEMP  :D         
 MANAGEMENT OPT : PLANTING:R  IRRIG   :N  FERT :D  RESIDUE:R  HARVEST:M         
                  WEATHER :M  TILLAGE :N                                        
                                                                                
*SUMMARY OF SOIL AND GENETIC INPUT PARAMETERS                                   
                                                                                
   SOIL LOWER UPPER   SAT  EXTR  INIT   ROOT   BULK     pH    NO3    NH4    ORG 
  DEPTH LIMIT LIMIT    SW    SW    SW   DIST   DENS                          C  
   cm   cm3/cm3    cm3/cm3    cm3/cm3         g/cm3         ugN/g  ugN/g     %  
------------------------------------------------------------------------------- 
  0-  5 0.215 0.331 0.341 0.116 0.319   1.00   1.68   6.70  11.90   4.21   0.75 
  5- 15 0.215 0.331 0.341 0.116 0.319   1.00   1.68   6.70  11.90   4.21   0.75 
 15- 25 0.215 0.331 0.341 0.116 0.319   1.00   1.68   6.70  11.90   4.21   0.75 
 25- 35 0.181 0.291 0.364 0.110 0.331   0.50   1.61   7.20  12.15   4.32   0.53 
 35- 45 0.181 0.291 0.364 0.110 0.344   0.50   1.61   7.20  12.40   4.44   0.53 
 45- 67 0.096 0.169 0.404 0.073 0.290   0.27   1.51   7.00  10.67   4.47   0.05 
 67- 90 0.096 0.169 0.404 0.073 0.195   0.27   1.51   7.00   7.63   4.53   0.05 
                                                                                
TOT- 90  13.3  21.7  34.0   8.4  25.6  <--cm   -  kg/ha-->  151.4   62.4  51964 
SOIL ALBEDO    : 0.09      EVAPORATION LIMIT : 6.00         MIN. FACTOR  : 1.00 
RUNOFF CURVE # :76.00      DRAINAGE RATE     : 0.60         FERT. FACTOR : 1.00 
                                                                                
 Maize      CULTIVAR :CI0001-P30F35             ECOTYPE :IB0001                 
 P1     : 212.00  P2     : 0.3000  P5     : 925.00                              
 G2     : 954.00  G3     :  7.000  PHINT  : 50.000                              


*SIMULATED CROP AND SOIL STATUS AT MAIN DEVELOPMENT STAGES

 RUN NO.     4     P04/17                  

        CROP GROWTH     BIOMASS         LEAF   CROP N     STRESS      STRESS                                           
   DATE  AGE STAGE        kg/ha    LAI   NUM  kg/ha  %   H2O  Nitr Phos1 Phos2  RSTG                                   
 ------  --- ----------   -----  -----  ----  ---  ---  ----  ----  ----  ----  ----                                   
 18 MAR    0 Start Sim        0   0.00   0.0    0  0.0  0.00  0.00  0.00  0.00     7
 17 APR    0 Sowing           0   0.00   0.0    0  0.0  0.00  0.00  0.00  0.00     8
 18 APR    1 Germinate        0   0.00   0.0    0  0.0  0.00  0.00  0.00  0.00     9
 23 APR    6 Emergence       25   0.00   2.0    1  4.4  0.00  0.01  0.00  0.00     1
  4 MAY   17 End Juveni      46   0.10   6.6    2  3.5  0.00  0.00  0.00  0.00     2
 11 MAY   24 Floral Ini     211   0.41   9.1    8  3.6  0.00  0.00  0.00  0.00     3
 16 JUN   60 75% Silkin    5623   3.08  19.3  112  2.0  0.05  0.00  0.00  0.00     4
 27 JUN   71 Beg Gr Fil    7765   2.91  19.3  113  1.5  0.00  0.00  0.00  0.00     5
  8 AUG  113 End Gr Fil   12812   1.16  19.3  154  1.2  0.45  0.00  0.00  0.00     6
 11 AUG  116 Maturity     12812   1.16  19.3  154  1.2  0.96  0.00  0.00  0.00    10
 11 AUG  116 Harvest      12812   1.16  19.3  154  1.2  0.00  0.00  0.00  0.00    10


*MAIN GROWTH AND DEVELOPMENT VARIABLES

@     VARIABLE                                         SIMULATED     MEASURED
      --------                                         ---------     --------
      Anthesis day (dap)                                      60          -99
      Physiological maturity day (dap)                       116          -99
      Yield at harvest maturity (kg [dm]/ha)                6205          -99
      Number at maturity (no/m2)                            2672          -99
      Unit wt at maturity (g [dm]/unit)                   0.2322          -99
      Number at maturity (no/unit)                         431.0          -99
      Tops weight at maturity (kg [dm]/ha)                 12812          -99
      By-product produced (stalk) at maturity (kg[dm]/ha    6657          -99
      Leaf area index, maximum                              3.21          -99
      Harvest index at maturity                            0.484          -99
      Grain N at maturity (kg/ha)                            110          -99
      Tops N at maturity (kg/ha)                             154          -99
      Stem N at maturity (kg/ha)                              44          -99
      Grain N at maturity (%)                                1.8          -99
      Tops weight at anthesis (kg [dm]/ha)                  5349          -99
      Tops N at anthesis (kg/ha)                             108          -99
      Leaf number per stem at maturity                     19.28          -99
      Emergence day (dap)                                      6          -99


*ENVIRONMENTAL AND STRESS FACTORS

 |-----Development Phase------|--------------------------------------Environment--------------------------------------|-----------------Stress-----------------|
                              |---------------Average--------------|-----Cumulative-----|--------Count of days--------|          (0=Min, 1=Max Stress)         |
                         Time  Temp  Temp  Temp Solar Photop                Evapo    Pot TMIN TMIN TMAX TMAX TMAX RAIN|----Water----|---Nitrogen--|-Phosphorus-|
                         Span   Max   Min  Mean   Rad  [day]    CO2   Rain  Trans     ET   <    <    >    >    >    >   Photo         Photo         Photo
                         days    邂    邂    邂 MJ/m2     hr    ppm     mm     mm     mm  0邂  2邂 30邂 32邂 34邂  0mm  synth Growth  synth Growth  synth Growth
----------------------------------------------------------------------------------------------------------------------------------------------------------------
 Emergence-End Juvenile    11  31.3  19.8  25.5  15.9  24.00  386.9   50.2   24.6   49.7    0    0    6    4    2    7  0.000  0.000  0.002  0.004  0.000  0.000
 End Juvenil-Floral Init    7  31.0  18.6  24.8  18.2  24.00  386.9    1.3   21.2   35.0    0    0    6    0    0    2  0.000  0.000  0.000  0.001  0.000  0.000
 Floral Init-End Lf Grow   36  31.2  18.9  25.1  16.0  24.00  387.1  152.3  120.0  144.0    0    0   23   10    1   17  0.009  0.051  0.000  0.000  0.000  0.000
 End Lf Grth-Beg Grn Fil   11  29.1  18.3  23.7  14.5  24.00  387.3    5.8   37.2   37.4    0    0    4    0    0    2  0.000  0.000  0.000  0.000  0.000  0.000
 Grain Filling Phase       42  31.4  18.2  24.8  17.2  24.00  387.4   71.4  110.0  176.7    0    0   27   15    4    6  0.382  0.426  0.000  0.000  0.000  0.000


 Planting to Harvest      116  31.1  18.7  24.9  16.4  24.00  387.2  283.4  322.2  481.6    0    0   73   32    7   35  0.165  0.195  0.000  0.000  0.000  0.000
----------------------------------------------------------------------------------------------------------------------------------------------------------------


*Resource Productivity
 Growing season length: 116 days 

 Precipitation during growing season       283.4 mm[rain]
   Dry Matter Productivity                  4.52 kg[DM]/m3[rain]          =   45.2 kg[DM]/ha per mm[rain]
   Yield Productivity                       2.19 kg[grain yield]/m3[rain] =   21.9 kg[yield]/ha per mm[rain]

 Evapotranspiration during growing season  322.2 mm[ET]
   Dry Matter Productivity                  3.98 kg[DM]/m3[ET]            =   39.8 kg[DM]/ha per mm[ET]
   Yield Productivity                       1.93 kg[grain yield]/m3[ET]   =   19.3 kg[yield]/ha per mm[ET]

 Transpiration during growing season       217.0 mm[EP]
   Dry Matter Productivity                  5.90 kg[DM]/m3[EP]            =   59.0 kg[DM]/ha per mm[EP]
   Yield Productivity                       2.86 kg[grain yield]/m3[EP]   =   28.6 kg[yield]/ha per mm[EP]

 N applied during growing season            161. kg[N applied]/ha
   Dry Matter Productivity                  79.6 kg[DM]/kg[N applied]
   Yield Productivity                       38.5 kg[yield]/kg[N applied]

 N uptake during growing season              174 kg[N uptake]/ha
   Dry Matter Productivity                  73.6 kg[DM]/kg[N uptake]
   Yield Productivity                       35.7 kg[yield]/kg[N uptake]

--------------------------------------------------------------------------------------------------------------

                     Maize YIELD :     6205 kg/ha    [Dry weight] 

**************************************************************************************************************

*DSSAT Cropping System Model Ver. 4.6.1.000 -release      OCT 02, 2017; 14:01:45
                                                                                
*RUN   5        : P04/22                    MZCER046 ANBU2009    5              
 MODEL          : MZCER046 - Maize                                              
 EXPERIMENT     : ANBU2009 MZ  Analisis a침os de bajo rendimiento Buga          
 DATA PATH      : C:\DSSAT46\maize\                                             
 TREATMENT  5   : P04/22                    MZCER046                            
                                                                                
                                                                                
 CROP           : Maize            CULTIVAR : P30F35           ECOTYPE :IB0001  
 STARTING DATE  : MAR 23 2009                                                   
 PLANTING DATE  : APR 22 2009        PLANTS/m2 :  6.2     ROW SPACING :  80.cm  
 WEATHER        : CUNI   2009                                                   
 SOIL           : CCBUGA2017     TEXTURE : CL    -   Suelo Buga MADR Fase I     
 SOIL INITIAL C : DEPTH: 90cm EXTR. H2O: 83.9mm  NO3:151.4kg/ha  NH4: 62.4kg/ha 
 WATER BALANCE  : RAINFED                                                       
 IRRIGATION     : NOT IRRIGATED                                                 
 NITROGEN BAL.  : SOIL-N & N-UPTAKE SIMULATION; NO N-FIXATION                   
 N-FERTILIZER   :      161 kg/ha IN     5 APPLICATIONS                          
 RESIDUE/MANURE : INITIAL :     0 kg/ha ;       0 kg/ha IN     0 APPLICATIONS   
 ENVIRONM. OPT. : DAYL=    0.00  SRAD=    0.00  TMAX=    0.00  TMIN=    0.00    
                  RAIN=    0.00  CO2 =    0.00  DEW =    0.00  WIND=    0.00    
 SIMULATION OPT : WATER   :Y  NITROGEN:Y  N-FIX:N  PHOSPH :N  PESTS  :N         
                  PHOTO   :C  ET      :R  INFIL:S  HYDROL :R  SOM    :G         
                  CO2 387ppm  NSWIT   :1  EVAP :S  SOIL   :2  STEMP  :D         
 MANAGEMENT OPT : PLANTING:R  IRRIG   :N  FERT :D  RESIDUE:R  HARVEST:M         
                  WEATHER :M  TILLAGE :N                                        
                                                                                
*SUMMARY OF SOIL AND GENETIC INPUT PARAMETERS                                   
                                                                                
   SOIL LOWER UPPER   SAT  EXTR  INIT   ROOT   BULK     pH    NO3    NH4    ORG 
  DEPTH LIMIT LIMIT    SW    SW    SW   DIST   DENS                          C  
   cm   cm3/cm3    cm3/cm3    cm3/cm3         g/cm3         ugN/g  ugN/g     %  
------------------------------------------------------------------------------- 
  0-  5 0.215 0.331 0.341 0.116 0.319   1.00   1.68   6.70  11.90   4.21   0.75 
  5- 15 0.215 0.331 0.341 0.116 0.319   1.00   1.68   6.70  11.90   4.21   0.75 
 15- 25 0.215 0.331 0.341 0.116 0.319   1.00   1.68   6.70  11.90   4.21   0.75 
 25- 35 0.181 0.291 0.364 0.110 0.331   0.50   1.61   7.20  12.15   4.32   0.53 
 35- 45 0.181 0.291 0.364 0.110 0.344   0.50   1.61   7.20  12.40   4.44   0.53 
 45- 67 0.096 0.169 0.404 0.073 0.290   0.27   1.51   7.00  10.67   4.47   0.05 
 67- 90 0.096 0.169 0.404 0.073 0.195   0.27   1.51   7.00   7.63   4.53   0.05 
                                                                                
TOT- 90  13.3  21.7  34.0   8.4  25.6  <--cm   -  kg/ha-->  151.4   62.4  51964 
SOIL ALBEDO    : 0.09      EVAPORATION LIMIT : 6.00         MIN. FACTOR  : 1.00 
RUNOFF CURVE # :76.00      DRAINAGE RATE     : 0.60         FERT. FACTOR : 1.00 
                                                                                
 Maize      CULTIVAR :CI0001-P30F35             ECOTYPE :IB0001                 
 P1     : 212.00  P2     : 0.3000  P5     : 925.00                              
 G2     : 954.00  G3     :  7.000  PHINT  : 50.000                              


*SIMULATED CROP AND SOIL STATUS AT MAIN DEVELOPMENT STAGES

 RUN NO.     5     P04/22                  

        CROP GROWTH     BIOMASS         LEAF   CROP N     STRESS      STRESS                                           
   DATE  AGE STAGE        kg/ha    LAI   NUM  kg/ha  %   H2O  Nitr Phos1 Phos2  RSTG                                   
 ------  --- ----------   -----  -----  ----  ---  ---  ----  ----  ----  ----  ----                                   
 23 MAR    0 Start Sim        0   0.00   0.0    0  0.0  0.00  0.00  0.00  0.00     7
 22 APR    0 Sowing           0   0.00   0.0    0  0.0  0.00  0.00  0.00  0.00     8
 23 APR    1 Germinate        0   0.00   0.0    0  0.0  0.00  0.00  0.00  0.00     9
 27 APR    5 Emergence       25   0.00   2.1    1  4.4  0.00  0.01  0.00  0.00     1
  9 MAY   17 End Juveni      63   0.14   6.9    2  3.3  0.00  0.00  0.00  0.00     2
 16 MAY   24 Floral Ini     252   0.47   9.4    9  3.6  0.00  0.00  0.00  0.00     3
 21 JUN   60 75% Silkin    5838   3.30  19.4  115  2.0  0.00  0.00  0.00  0.00     4
  3 JUL   72 Beg Gr Fil    8229   3.11  19.4  115  1.4  0.00  0.00  0.00  0.00     5
 13 AUG  113 End Gr Fil   12513   1.06  19.4  145  1.2  0.56  0.00  0.00  0.00     6
 16 AUG  116 Maturity     12513   1.06  19.4  145  1.2  0.56  0.00  0.00  0.00    10
 16 AUG  116 Harvest      12513   1.06  19.4  145  1.2  0.00  0.00  0.00  0.00    10


*MAIN GROWTH AND DEVELOPMENT VARIABLES

@     VARIABLE                                         SIMULATED     MEASURED
      --------                                         ---------     --------
      Anthesis day (dap)                                      60          -99
      Physiological maturity day (dap)                       116          -99
      Yield at harvest maturity (kg [dm]/ha)                5784          -99
      Number at maturity (no/m2)                            2751          -99
      Unit wt at maturity (g [dm]/unit)                   0.2103          -99
      Number at maturity (no/unit)                         443.7          -99
      Tops weight at maturity (kg [dm]/ha)                 12513          -99
      By-product produced (stalk) at maturity (kg[dm]/ha    6785          -99
      Leaf area index, maximum                              3.46          -99
      Harvest index at maturity                            0.462          -99
      Grain N at maturity (kg/ha)                            103          -99
      Tops N at maturity (kg/ha)                             145          -99
      Stem N at maturity (kg/ha)                              42          -99
      Grain N at maturity (%)                                1.8          -99
      Tops weight at anthesis (kg [dm]/ha)                  5538          -99
      Tops N at anthesis (kg/ha)                             111          -99
      Leaf number per stem at maturity                     19.39          -99
      Emergence day (dap)                                      5          -99


*ENVIRONMENTAL AND STRESS FACTORS

 |-----Development Phase------|--------------------------------------Environment--------------------------------------|-----------------Stress-----------------|
                              |---------------Average--------------|-----Cumulative-----|--------Count of days--------|          (0=Min, 1=Max Stress)         |
                         Time  Temp  Temp  Temp Solar Photop                Evapo    Pot TMIN TMIN TMAX TMAX TMAX RAIN|----Water----|---Nitrogen--|-Phosphorus-|
                         Span   Max   Min  Mean   Rad  [day]    CO2   Rain  Trans     ET   <    <    >    >    >    >   Photo         Photo         Photo
                         days    邂    邂    邂 MJ/m2     hr    ppm     mm     mm     mm  0邂  2邂 30邂 32邂 34邂  0mm  synth Growth  synth Growth  synth Growth
----------------------------------------------------------------------------------------------------------------------------------------------------------------
 Emergence-End Juvenile    12  30.5  19.5  25.0  16.5  24.00  386.9   42.1   34.0   55.9    0    0    7    2    1    7  0.000  0.000  0.002  0.006  0.000  0.000
 End Juvenil-Floral Init    7  31.5  17.9  24.7  17.5  24.00  387.0    4.8   11.7   33.4    0    0    5    1    0    3  0.000  0.000  0.000  0.001  0.000  0.000
 Floral Init-End Lf Grow   36  31.0  19.0  25.0  15.7  24.00  387.1  148.0  122.2  139.8    0    0   22    9    1   15  0.000  0.001  0.000  0.000  0.000  0.000
 End Lf Grth-Beg Grn Fil   12  28.6  18.0  23.3  14.7  24.00  387.3   60.1   40.6   40.8    0    0    2    0    0    4  0.000  0.000  0.000  0.000  0.000  0.000
 Grain Filling Phase       41  31.9  18.3  25.1  17.4  24.00  387.4   19.5   96.5  175.5    0    0   31   18    4    5  0.486  0.533  0.000  0.000  0.000  0.000


 Planting to Harvest      116  31.2  18.7  24.9  16.5  24.00  387.2  294.0  315.7  481.8    0    0   74   35    8   36  0.187  0.204  0.000  0.001  0.000  0.000
----------------------------------------------------------------------------------------------------------------------------------------------------------------


*Resource Productivity
 Growing season length: 116 days 

 Precipitation during growing season       294.0 mm[rain]
   Dry Matter Productivity                  4.26 kg[DM]/m3[rain]          =   42.6 kg[DM]/ha per mm[rain]
   Yield Productivity                       1.97 kg[grain yield]/m3[rain] =   19.7 kg[yield]/ha per mm[rain]

 Evapotranspiration during growing season  315.7 mm[ET]
   Dry Matter Productivity                  3.96 kg[DM]/m3[ET]            =   39.6 kg[DM]/ha per mm[ET]
   Yield Productivity                       1.83 kg[grain yield]/m3[ET]   =   18.3 kg[yield]/ha per mm[ET]

 Transpiration during growing season       215.7 mm[EP]
   Dry Matter Productivity                  5.80 kg[DM]/m3[EP]            =   58.0 kg[DM]/ha per mm[EP]
   Yield Productivity                       2.68 kg[grain yield]/m3[EP]   =   26.8 kg[yield]/ha per mm[EP]

 N applied during growing season            161. kg[N applied]/ha
   Dry Matter Productivity                  77.7 kg[DM]/kg[N applied]
   Yield Productivity                       35.9 kg[yield]/kg[N applied]

 N uptake during growing season              166 kg[N uptake]/ha
   Dry Matter Productivity                  75.4 kg[DM]/kg[N uptake]
   Yield Productivity                       34.8 kg[yield]/kg[N uptake]

--------------------------------------------------------------------------------------------------------------

                     Maize YIELD :     5784 kg/ha    [Dry weight] 

**************************************************************************************************************

*DSSAT Cropping System Model Ver. 4.6.1.000 -release      OCT 02, 2017; 14:01:45
                                                                                
*RUN   6        : P04/27                    MZCER046 ANBU2009    6              
 MODEL          : MZCER046 - Maize                                              
 EXPERIMENT     : ANBU2009 MZ  Analisis a침os de bajo rendimiento Buga          
 DATA PATH      : C:\DSSAT46\maize\                                             
 TREATMENT  6   : P04/27                    MZCER046                            
                                                                                
                                                                                
 CROP           : Maize            CULTIVAR : P30F35           ECOTYPE :IB0001  
 STARTING DATE  : MAR 28 2009                                                   
 PLANTING DATE  : APR 27 2009        PLANTS/m2 :  6.2     ROW SPACING :  80.cm  
 WEATHER        : CUNI   2009                                                   
 SOIL           : CCBUGA2017     TEXTURE : CL    -   Suelo Buga MADR Fase I     
 SOIL INITIAL C : DEPTH: 90cm EXTR. H2O: 83.9mm  NO3:151.4kg/ha  NH4: 62.4kg/ha 
 WATER BALANCE  : RAINFED                                                       
 IRRIGATION     : NOT IRRIGATED                                                 
 NITROGEN BAL.  : SOIL-N & N-UPTAKE SIMULATION; NO N-FIXATION                   
 N-FERTILIZER   :      161 kg/ha IN     5 APPLICATIONS                          
 RESIDUE/MANURE : INITIAL :     0 kg/ha ;       0 kg/ha IN     0 APPLICATIONS   
 ENVIRONM. OPT. : DAYL=    0.00  SRAD=    0.00  TMAX=    0.00  TMIN=    0.00    
                  RAIN=    0.00  CO2 =    0.00  DEW =    0.00  WIND=    0.00    
 SIMULATION OPT : WATER   :Y  NITROGEN:Y  N-FIX:N  PHOSPH :N  PESTS  :N         
                  PHOTO   :C  ET      :R  INFIL:S  HYDROL :R  SOM    :G         
                  CO2 387ppm  NSWIT   :1  EVAP :S  SOIL   :2  STEMP  :D         
 MANAGEMENT OPT : PLANTING:R  IRRIG   :N  FERT :D  RESIDUE:R  HARVEST:M         
                  WEATHER :M  TILLAGE :N                                        
                                                                                
*SUMMARY OF SOIL AND GENETIC INPUT PARAMETERS                                   
                                                                                
   SOIL LOWER UPPER   SAT  EXTR  INIT   ROOT   BULK     pH    NO3    NH4    ORG 
  DEPTH LIMIT LIMIT    SW    SW    SW   DIST   DENS                          C  
   cm   cm3/cm3    cm3/cm3    cm3/cm3         g/cm3         ugN/g  ugN/g     %  
------------------------------------------------------------------------------- 
  0-  5 0.215 0.331 0.341 0.116 0.319   1.00   1.68   6.70  11.90   4.21   0.75 
  5- 15 0.215 0.331 0.341 0.116 0.319   1.00   1.68   6.70  11.90   4.21   0.75 
 15- 25 0.215 0.331 0.341 0.116 0.319   1.00   1.68   6.70  11.90   4.21   0.75 
 25- 35 0.181 0.291 0.364 0.110 0.331   0.50   1.61   7.20  12.15   4.32   0.53 
 35- 45 0.181 0.291 0.364 0.110 0.344   0.50   1.61   7.20  12.40   4.44   0.53 
 45- 67 0.096 0.169 0.404 0.073 0.290   0.27   1.51   7.00  10.67   4.47   0.05 
 67- 90 0.096 0.169 0.404 0.073 0.195   0.27   1.51   7.00   7.63   4.53   0.05 
                                                                                
TOT- 90  13.3  21.7  34.0   8.4  25.6  <--cm   -  kg/ha-->  151.4   62.4  51964 
SOIL ALBEDO    : 0.09      EVAPORATION LIMIT : 6.00         MIN. FACTOR  : 1.00 
RUNOFF CURVE # :76.00      DRAINAGE RATE     : 0.60         FERT. FACTOR : 1.00 
                                                                                
 Maize      CULTIVAR :CI0001-P30F35             ECOTYPE :IB0001                 
 P1     : 212.00  P2     : 0.3000  P5     : 925.00                              
 G2     : 954.00  G3     :  7.000  PHINT  : 50.000                              


*SIMULATED CROP AND SOIL STATUS AT MAIN DEVELOPMENT STAGES

 RUN NO.     6     P04/27                  

        CROP GROWTH     BIOMASS         LEAF   CROP N     STRESS      STRESS                                           
   DATE  AGE STAGE        kg/ha    LAI   NUM  kg/ha  %   H2O  Nitr Phos1 Phos2  RSTG                                   
 ------  --- ----------   -----  -----  ----  ---  ---  ----  ----  ----  ----  ----                                   
 28 MAR    0 Start Sim        0   0.00   0.0    0  0.0  0.00  0.00  0.00  0.00     7
 27 APR    0 Sowing           0   0.00   0.0    0  0.0  0.00  0.00  0.00  0.00     8
 28 APR    1 Germinate        0   0.00   0.0    0  0.0  0.00  0.00  0.00  0.00     9
  3 MAY    6 Emergence       25   0.00   2.0    1  4.4  0.00  0.01  0.00  0.00     1
 15 MAY   18 End Juveni      76   0.17   6.8    3  3.4  0.00  0.00  0.00  0.00     2
 22 MAY   25 Floral Ini     271   0.50   9.4   10  3.6  0.00  0.00  0.00  0.00     3
 29 JUN   63 75% Silkin    5868   3.22  19.9  114  1.9  0.00  0.00  0.00  0.00     4
 10 JUL   74 Beg Gr Fil    8243   3.04  19.9  115  1.4  0.00  0.00  0.00  0.00     5
 20 AUG  115 End Gr Fil   11652   0.86  19.9  133  1.1  0.67  0.00  0.00  0.00     6
 22 AUG  117 Maturity     11652   0.86  19.9  133  1.1  0.00  0.00  0.00  0.00    10
 22 AUG  117 Harvest      11652   0.86  19.9  133  1.1  0.00  0.00  0.00  0.00    10


*MAIN GROWTH AND DEVELOPMENT VARIABLES

@     VARIABLE                                         SIMULATED     MEASURED
      --------                                         ---------     --------
      Anthesis day (dap)                                      63          -99
      Physiological maturity day (dap)                       117          -99
      Yield at harvest maturity (kg [dm]/ha)                4899          -99
      Number at maturity (no/m2)                            2810          -99
      Unit wt at maturity (g [dm]/unit)                   0.1743          -99
      Number at maturity (no/unit)                         453.2          -99
      Tops weight at maturity (kg [dm]/ha)                 11652          -99
      By-product produced (stalk) at maturity (kg[dm]/ha    6807          -99
      Leaf area index, maximum                              3.38          -99
      Harvest index at maturity                            0.420          -99
      Grain N at maturity (kg/ha)                             89          -99
      Tops N at maturity (kg/ha)                             133          -99
      Stem N at maturity (kg/ha)                              44          -99
      Grain N at maturity (%)                                1.8          -99
      Tops weight at anthesis (kg [dm]/ha)                  5678          -99
      Tops N at anthesis (kg/ha)                             114          -99
      Leaf number per stem at maturity                     19.87          -99
      Emergence day (dap)                                      6          -99


*ENVIRONMENTAL AND STRESS FACTORS

 |-----Development Phase------|--------------------------------------Environment--------------------------------------|-----------------Stress-----------------|
                              |---------------Average--------------|-----Cumulative-----|--------Count of days--------|          (0=Min, 1=Max Stress)         |
                         Time  Temp  Temp  Temp Solar Photop                Evapo    Pot TMIN TMIN TMAX TMAX TMAX RAIN|----Water----|---Nitrogen--|-Phosphorus-|
                         Span   Max   Min  Mean   Rad  [day]    CO2   Rain  Trans     ET   <    <    >    >    >    >   Photo         Photo         Photo
                         days    邂    邂    邂 MJ/m2     hr    ppm     mm     mm     mm  0邂  2邂 30邂 32邂 34邂  0mm  synth Growth  synth Growth  synth Growth
----------------------------------------------------------------------------------------------------------------------------------------------------------------
 Emergence-End Juvenile    12  31.0  18.5  24.8  17.4  24.00  386.9   12.6   23.5   58.1    0    0    9    1    0    5  0.000  0.000  0.002  0.005  0.000  0.000
 End Juvenil-Floral Init    7  32.0  18.7  25.3  14.7  24.00  387.1    0.5    9.7   28.2    0    0    6    2    0    1  0.000  0.000  0.001  0.002  0.000  0.000
 Floral Init-End Lf Grow   38  30.2  18.9  24.5  15.7  24.00  387.2  153.3  130.4  146.8    0    0   18    7    1   16  0.000  0.000  0.000  0.000  0.000  0.000
 End Lf Grth-Beg Grn Fil   11  29.2  18.3  23.7  15.1  24.00  387.3   56.8   38.7   38.9    0    0    1    0    0    4  0.000  0.000  0.000  0.000  0.000  0.000
 Grain Filling Phase       41  32.4  18.4  25.4  17.8  24.00  387.5   33.2   84.8  182.1    0    0   36   21    5    6  0.593  0.648  0.000  0.000  0.000  0.000


 Planting to Harvest      117  31.1  18.7  24.9  16.5  24.00  387.2  300.9  309.1  489.9    0    0   75   33    7   39  0.216  0.236  0.000  0.001  0.000  0.000
----------------------------------------------------------------------------------------------------------------------------------------------------------------


*Resource Productivity
 Growing season length: 117 days 

 Precipitation during growing season       300.9 mm[rain]
   Dry Matter Productivity                  3.87 kg[DM]/m3[rain]          =   38.7 kg[DM]/ha per mm[rain]
   Yield Productivity                       1.63 kg[grain yield]/m3[rain] =   16.3 kg[yield]/ha per mm[rain]

 Evapotranspiration during growing season  309.1 mm[ET]
   Dry Matter Productivity                  3.77 kg[DM]/m3[ET]            =   37.7 kg[DM]/ha per mm[ET]
   Yield Productivity                       1.59 kg[grain yield]/m3[ET]   =   15.9 kg[yield]/ha per mm[ET]

 Transpiration during growing season       200.4 mm[EP]
   Dry Matter Productivity                  5.81 kg[DM]/m3[EP]            =   58.1 kg[DM]/ha per mm[EP]
   Yield Productivity                       2.44 kg[grain yield]/m3[EP]   =   24.4 kg[yield]/ha per mm[EP]

 N applied during growing season            161. kg[N applied]/ha
   Dry Matter Productivity                  72.4 kg[DM]/kg[N applied]
   Yield Productivity                       30.4 kg[yield]/kg[N applied]

 N uptake during growing season              152 kg[N uptake]/ha
   Dry Matter Productivity                  76.7 kg[DM]/kg[N uptake]
   Yield Productivity                       32.2 kg[yield]/kg[N uptake]

--------------------------------------------------------------------------------------------------------------

                     Maize YIELD :     4899 kg/ha    [Dry weight] 

**************************************************************************************************************

*DSSAT Cropping System Model Ver. 4.6.1.000 -release      OCT 02, 2017; 14:01:46
                                                                                
*RUN   7        : P05/02                    MZCER046 ANBU2009    7              
 MODEL          : MZCER046 - Maize                                              
 EXPERIMENT     : ANBU2009 MZ  Analisis a침os de bajo rendimiento Buga          
 DATA PATH      : C:\DSSAT46\maize\                                             
 TREATMENT  7   : P05/02                    MZCER046                            
                                                                                
                                                                                
 CROP           : Maize            CULTIVAR : P30F35           ECOTYPE :IB0001  
 STARTING DATE  : APR  2 2009                                                   
 PLANTING DATE  : MAY  2 2009        PLANTS/m2 :  6.2     ROW SPACING :  80.cm  
 WEATHER        : CUNI   2009                                                   
 SOIL           : CCBUGA2017     TEXTURE : CL    -   Suelo Buga MADR Fase I     
 SOIL INITIAL C : DEPTH: 90cm EXTR. H2O: 83.9mm  NO3:151.4kg/ha  NH4: 62.4kg/ha 
 WATER BALANCE  : RAINFED                                                       
 IRRIGATION     : NOT IRRIGATED                                                 
 NITROGEN BAL.  : SOIL-N & N-UPTAKE SIMULATION; NO N-FIXATION                   
 N-FERTILIZER   :      161 kg/ha IN     5 APPLICATIONS                          
 RESIDUE/MANURE : INITIAL :     0 kg/ha ;       0 kg/ha IN     0 APPLICATIONS   
 ENVIRONM. OPT. : DAYL=    0.00  SRAD=    0.00  TMAX=    0.00  TMIN=    0.00    
                  RAIN=    0.00  CO2 =    0.00  DEW =    0.00  WIND=    0.00    
 SIMULATION OPT : WATER   :Y  NITROGEN:Y  N-FIX:N  PHOSPH :N  PESTS  :N         
                  PHOTO   :C  ET      :R  INFIL:S  HYDROL :R  SOM    :G         
                  CO2 387ppm  NSWIT   :1  EVAP :S  SOIL   :2  STEMP  :D         
 MANAGEMENT OPT : PLANTING:R  IRRIG   :N  FERT :D  RESIDUE:R  HARVEST:M         
                  WEATHER :M  TILLAGE :N                                        
                                                                                
*SUMMARY OF SOIL AND GENETIC INPUT PARAMETERS                                   
                                                                                
   SOIL LOWER UPPER   SAT  EXTR  INIT   ROOT   BULK     pH    NO3    NH4    ORG 
  DEPTH LIMIT LIMIT    SW    SW    SW   DIST   DENS                          C  
   cm   cm3/cm3    cm3/cm3    cm3/cm3         g/cm3         ugN/g  ugN/g     %  
------------------------------------------------------------------------------- 
  0-  5 0.215 0.331 0.341 0.116 0.319   1.00   1.68   6.70  11.90   4.21   0.75 
  5- 15 0.215 0.331 0.341 0.116 0.319   1.00   1.68   6.70  11.90   4.21   0.75 
 15- 25 0.215 0.331 0.341 0.116 0.319   1.00   1.68   6.70  11.90   4.21   0.75 
 25- 35 0.181 0.291 0.364 0.110 0.331   0.50   1.61   7.20  12.15   4.32   0.53 
 35- 45 0.181 0.291 0.364 0.110 0.344   0.50   1.61   7.20  12.40   4.44   0.53 
 45- 67 0.096 0.169 0.404 0.073 0.290   0.27   1.51   7.00  10.67   4.47   0.05 
 67- 90 0.096 0.169 0.404 0.073 0.195   0.27   1.51   7.00   7.63   4.53   0.05 
                                                                                
TOT- 90  13.3  21.7  34.0   8.4  25.6  <--cm   -  kg/ha-->  151.4   62.4  51964 
SOIL ALBEDO    : 0.09      EVAPORATION LIMIT : 6.00         MIN. FACTOR  : 1.00 
RUNOFF CURVE # :76.00      DRAINAGE RATE     : 0.60         FERT. FACTOR : 1.00 
                                                                                
 Maize      CULTIVAR :CI0001-P30F35             ECOTYPE :IB0001                 
 P1     : 212.00  P2     : 0.3000  P5     : 925.00                              
 G2     : 954.00  G3     :  7.000  PHINT  : 50.000                              


*SIMULATED CROP AND SOIL STATUS AT MAIN DEVELOPMENT STAGES

 RUN NO.     7     P05/02                  

        CROP GROWTH     BIOMASS         LEAF   CROP N     STRESS      STRESS                                           
   DATE  AGE STAGE        kg/ha    LAI   NUM  kg/ha  %   H2O  Nitr Phos1 Phos2  RSTG                                   
 ------  --- ----------   -----  -----  ----  ---  ---  ----  ----  ----  ----  ----                                   
  2 APR    0 Start Sim        0   0.00   0.0    0  0.0  0.00  0.00  0.00  0.00     7
  2 MAY    0 Sowing           0   0.00   0.0    0  0.0  0.00  0.00  0.00  0.00     8
  3 MAY    1 Germinate        0   0.00   0.0    0  0.0  0.00  0.00  0.00  0.00     9
  8 MAY    6 Emergence       25   0.00   2.0    1  4.4  0.00  0.01  0.00  0.00     1
 20 MAY   18 End Juveni      82   0.18   6.9    3  3.3  0.00  0.00  0.00  0.00     2
 27 MAY   25 Floral Ini     293   0.54   9.5   11  3.6  0.00  0.00  0.00  0.00     3
  5 JUL   64 75% Silkin    5719   3.01  20.0  113  2.0  0.00  0.00  0.00  0.00     4
 15 JUL   74 Beg Gr Fil    8101   2.84  20.0  114  1.4  0.00  0.00  0.00  0.00     5
 25 AUG  115 End Gr Fil   11105   0.77  20.0  120  1.1  0.68  0.00  0.00  0.00     6
 28 AUG  118 Maturity     11105   0.77  20.0  120  1.1  0.00  0.00  0.00  0.00    10
 28 AUG  118 Harvest      11105   0.77  20.0  120  1.1  0.00  0.00  0.00  0.00    10


*MAIN GROWTH AND DEVELOPMENT VARIABLES

@     VARIABLE                                         SIMULATED     MEASURED
      --------                                         ---------     --------
      Anthesis day (dap)                                      64          -99
      Physiological maturity day (dap)                       118          -99
      Yield at harvest maturity (kg [dm]/ha)                4219          -99
      Number at maturity (no/m2)                            2971          -99
      Unit wt at maturity (g [dm]/unit)                   0.1420          -99
      Number at maturity (no/unit)                         479.1          -99
      Tops weight at maturity (kg [dm]/ha)                 11105          -99
      By-product produced (stalk) at maturity (kg[dm]/ha    6935          -99
      Leaf area index, maximum                              3.16          -99
      Harvest index at maturity                            0.380          -99
      Grain N at maturity (kg/ha)                             77          -99
      Tops N at maturity (kg/ha)                             120          -99
      Stem N at maturity (kg/ha)                              43          -99
      Grain N at maturity (%)                                1.8          -99
      Tops weight at anthesis (kg [dm]/ha)                  5546          -99
      Tops N at anthesis (kg/ha)                             111          -99
      Leaf number per stem at maturity                     20.03          -99
      Emergence day (dap)                                      6          -99


*ENVIRONMENTAL AND STRESS FACTORS

 |-----Development Phase------|--------------------------------------Environment--------------------------------------|-----------------Stress-----------------|
                              |---------------Average--------------|-----Cumulative-----|--------Count of days--------|          (0=Min, 1=Max Stress)         |
                         Time  Temp  Temp  Temp Solar Photop                Evapo    Pot TMIN TMIN TMAX TMAX TMAX RAIN|----Water----|---Nitrogen--|-Phosphorus-|
                         Span   Max   Min  Mean   Rad  [day]    CO2   Rain  Trans     ET   <    <    >    >    >    >   Photo         Photo         Photo
                         days    邂    邂    邂 MJ/m2     hr    ppm     mm     mm     mm  0邂  2邂 30邂 32邂 34邂  0mm  synth Growth  synth Growth  synth Growth
----------------------------------------------------------------------------------------------------------------------------------------------------------------
 Emergence-End Juvenile    12  31.7  18.2  25.0  17.0  24.00  387.0    5.3   12.8   56.9    0    0   10    2    0    4  0.000  0.000  0.002  0.004  0.000  0.000
 End Juvenil-Floral Init    7  32.1  18.9  25.5  14.8  24.00  387.1    4.9    9.9   28.2    0    0    6    4    0    2  0.000  0.000  0.001  0.002  0.000  0.000
 Floral Init-End Lf Grow   39  29.8  18.7  24.3  15.6  24.00  387.2  205.2  138.5  150.6    0    0   14    4    1   18  0.000  0.000  0.000  0.000  0.000  0.000
 End Lf Grth-Beg Grn Fil   10  30.5  18.2  24.4  16.5  24.00  387.3    0.0   39.0   39.2    0    0    5    2    0    0  0.000  0.000  0.000  0.000  0.000  0.000
 Grain Filling Phase       41  32.4  18.6  25.5  17.8  24.00  387.5   58.6   76.1  184.5    0    0   36   19    5   10  0.623  0.683  0.000  0.000  0.000  0.000


 Planting to Harvest      118  31.2  18.6  24.9  16.6  24.00  387.3  287.9  303.3  499.5    0    0   78   34    7   37  0.216  0.237  0.000  0.001  0.000  0.000
----------------------------------------------------------------------------------------------------------------------------------------------------------------


*Resource Productivity
 Growing season length: 118 days 

 Precipitation during growing season       287.9 mm[rain]
   Dry Matter Productivity                  3.86 kg[DM]/m3[rain]          =   38.6 kg[DM]/ha per mm[rain]
   Yield Productivity                       1.47 kg[grain yield]/m3[rain] =   14.7 kg[yield]/ha per mm[rain]

 Evapotranspiration during growing season  303.3 mm[ET]
   Dry Matter Productivity                  3.66 kg[DM]/m3[ET]            =   36.6 kg[DM]/ha per mm[ET]
   Yield Productivity                       1.39 kg[grain yield]/m3[ET]   =   13.9 kg[yield]/ha per mm[ET]

 Transpiration during growing season       187.6 mm[EP]
   Dry Matter Productivity                  5.92 kg[DM]/m3[EP]            =   59.2 kg[DM]/ha per mm[EP]
   Yield Productivity                       2.25 kg[grain yield]/m3[EP]   =   22.5 kg[yield]/ha per mm[EP]

 N applied during growing season            161. kg[N applied]/ha
   Dry Matter Productivity                  69.0 kg[DM]/kg[N applied]
   Yield Productivity                       26.2 kg[yield]/kg[N applied]

 N uptake during growing season              136 kg[N uptake]/ha
   Dry Matter Productivity                  81.7 kg[DM]/kg[N uptake]
   Yield Productivity                       31.0 kg[yield]/kg[N uptake]

--------------------------------------------------------------------------------------------------------------

                     Maize YIELD :     4219 kg/ha    [Dry weight] 

**************************************************************************************************************

*DSSAT Cropping System Model Ver. 4.6.1.000 -release      OCT 02, 2017; 14:01:46
                                                                                
*RUN   8        : P05/07                    MZCER046 ANBU2009    8              
 MODEL          : MZCER046 - Maize                                              
 EXPERIMENT     : ANBU2009 MZ  Analisis a침os de bajo rendimiento Buga          
 DATA PATH      : C:\DSSAT46\maize\                                             
 TREATMENT  8   : P05/07                    MZCER046                            
                                                                                
                                                                                
 CROP           : Maize            CULTIVAR : P30F35           ECOTYPE :IB0001  
 STARTING DATE  : APR  7 2009                                                   
 PLANTING DATE  : MAY  7 2009        PLANTS/m2 :  6.2     ROW SPACING :  80.cm  
 WEATHER        : CUNI   2009                                                   
 SOIL           : CCBUGA2017     TEXTURE : CL    -   Suelo Buga MADR Fase I     
 SOIL INITIAL C : DEPTH: 90cm EXTR. H2O: 83.9mm  NO3:151.4kg/ha  NH4: 62.4kg/ha 
 WATER BALANCE  : RAINFED                                                       
 IRRIGATION     : NOT IRRIGATED                                                 
 NITROGEN BAL.  : SOIL-N & N-UPTAKE SIMULATION; NO N-FIXATION                   
 N-FERTILIZER   :      161 kg/ha IN     5 APPLICATIONS                          
 RESIDUE/MANURE : INITIAL :     0 kg/ha ;       0 kg/ha IN     0 APPLICATIONS   
 ENVIRONM. OPT. : DAYL=    0.00  SRAD=    0.00  TMAX=    0.00  TMIN=    0.00    
                  RAIN=    0.00  CO2 =    0.00  DEW =    0.00  WIND=    0.00    
 SIMULATION OPT : WATER   :Y  NITROGEN:Y  N-FIX:N  PHOSPH :N  PESTS  :N         
                  PHOTO   :C  ET      :R  INFIL:S  HYDROL :R  SOM    :G         
                  CO2 387ppm  NSWIT   :1  EVAP :S  SOIL   :2  STEMP  :D         
 MANAGEMENT OPT : PLANTING:R  IRRIG   :N  FERT :D  RESIDUE:R  HARVEST:M         
                  WEATHER :M  TILLAGE :N                                        
                                                                                
*SUMMARY OF SOIL AND GENETIC INPUT PARAMETERS                                   
                                                                                
   SOIL LOWER UPPER   SAT  EXTR  INIT   ROOT   BULK     pH    NO3    NH4    ORG 
  DEPTH LIMIT LIMIT    SW    SW    SW   DIST   DENS                          C  
   cm   cm3/cm3    cm3/cm3    cm3/cm3         g/cm3         ugN/g  ugN/g     %  
------------------------------------------------------------------------------- 
  0-  5 0.215 0.331 0.341 0.116 0.319   1.00   1.68   6.70  11.90   4.21   0.75 
  5- 15 0.215 0.331 0.341 0.116 0.319   1.00   1.68   6.70  11.90   4.21   0.75 
 15- 25 0.215 0.331 0.341 0.116 0.319   1.00   1.68   6.70  11.90   4.21   0.75 
 25- 35 0.181 0.291 0.364 0.110 0.331   0.50   1.61   7.20  12.15   4.32   0.53 
 35- 45 0.181 0.291 0.364 0.110 0.344   0.50   1.61   7.20  12.40   4.44   0.53 
 45- 67 0.096 0.169 0.404 0.073 0.290   0.27   1.51   7.00  10.67   4.47   0.05 
 67- 90 0.096 0.169 0.404 0.073 0.195   0.27   1.51   7.00   7.63   4.53   0.05 
                                                                                
TOT- 90  13.3  21.7  34.0   8.4  25.6  <--cm   -  kg/ha-->  151.4   62.4  51964 
SOIL ALBEDO    : 0.09      EVAPORATION LIMIT : 6.00         MIN. FACTOR  : 1.00 
RUNOFF CURVE # :76.00      DRAINAGE RATE     : 0.60         FERT. FACTOR : 1.00 
                                                                                
 Maize      CULTIVAR :CI0001-P30F35             ECOTYPE :IB0001                 
 P1     : 212.00  P2     : 0.3000  P5     : 925.00                              
 G2     : 954.00  G3     :  7.000  PHINT  : 50.000                              


*SIMULATED CROP AND SOIL STATUS AT MAIN DEVELOPMENT STAGES

 RUN NO.     8     P05/07                  

        CROP GROWTH     BIOMASS         LEAF   CROP N     STRESS      STRESS                                           
   DATE  AGE STAGE        kg/ha    LAI   NUM  kg/ha  %   H2O  Nitr Phos1 Phos2  RSTG                                   
 ------  --- ----------   -----  -----  ----  ---  ---  ----  ----  ----  ----  ----                                   
  7 APR    0 Start Sim        0   0.00   0.0    0  0.0  0.00  0.00  0.00  0.00     7
  7 MAY    0 Sowing           0   0.00   0.0    0  0.0  0.00  0.00  0.00  0.00     8
  8 MAY    1 Germinate        0   0.00   0.0    0  0.0  0.00  0.00  0.00  0.00     9
 13 MAY    6 Emergence       25   0.00   2.0    1  4.4  0.00  0.01  0.00  0.00     1
 25 MAY   18 End Juveni      90   0.19   6.9    3  3.3  0.01  0.00  0.00  0.00     2
  1 JUN   25 Floral Ini     256   0.48   9.5    9  3.6  0.00  0.00  0.00  0.00     3
 10 JUL   64 75% Silkin    5966   3.09  19.9  117  2.0  0.00  0.00  0.00  0.00     4
 20 JUL   74 Beg Gr Fil    8035   2.70  19.9  117  1.5  0.33  0.00  0.00  0.00     5
 30 AUG  115 End Gr Fil   10756   0.75  19.9  117  1.1  0.67  0.00  0.00  0.00     6
  1 SEP  117 Maturity     10756   0.75  19.9  117  1.1  0.00  0.00  0.00  0.00    10
[...]
 NITROGEN BAL.  : SOIL-N & N-UPTAKE SIMULATION; NO N-FIXATION                   
 N-FERTILIZER   :      161 kg/ha IN     5 APPLICATIONS                          
 RESIDUE/MANURE : INITIAL :     0 kg/ha ;       0 kg/ha IN     0 APPLICATIONS   
 ENVIRONM. OPT. : DAYL=    0.00  SRAD=    0.00  TMAX=    0.00  TMIN=    0.00    
                  RAIN=    0.00  CO2 =    0.00  DEW =    0.00  WIND=    0.00    
 SIMULATION OPT : WATER   :Y  NITROGEN:Y  N-FIX:N  PHOSPH :N  PESTS  :N         
                  PHOTO   :C  ET      :R  INFIL:S  HYDROL :R  SOM    :G         
                  CO2 388ppm  NSWIT   :1  EVAP :S  SOIL   :2  STEMP  :D         
 MANAGEMENT OPT : PLANTING:R  IRRIG   :N  FERT :D  RESIDUE:R  HARVEST:M         
                  WEATHER :M  TILLAGE :N                                        
                                                                                
*SUMMARY OF SOIL AND GENETIC INPUT PARAMETERS                                   
                                                                                
   SOIL LOWER UPPER   SAT  EXTR  INIT   ROOT   BULK     pH    NO3    NH4    ORG 
  DEPTH LIMIT LIMIT    SW    SW    SW   DIST   DENS                          C  
   cm   cm3/cm3    cm3/cm3    cm3/cm3         g/cm3         ugN/g  ugN/g     %  
------------------------------------------------------------------------------- 
  0-  5 0.215 0.331 0.341 0.116 0.319   1.00   1.68   6.70  11.90   4.21   0.75 
  5- 15 0.215 0.331 0.341 0.116 0.319   1.00   1.68   6.70  11.90   4.21   0.75 
 15- 25 0.215 0.331 0.341 0.116 0.319   1.00   1.68   6.70  11.90   4.21   0.75 
 25- 35 0.181 0.291 0.364 0.110 0.331   0.50   1.61   7.20  12.15   4.32   0.53 
 35- 45 0.181 0.291 0.364 0.110 0.344   0.50   1.61   7.20  12.40   4.44   0.53 
 45- 67 0.096 0.169 0.404 0.073 0.290   0.27   1.51   7.00  10.67   4.47   0.05 
 67- 90 0.096 0.169 0.404 0.073 0.195   0.27   1.51   7.00   7.63   4.53   0.05 
                                                                                
TOT- 90  13.3  21.7  34.0   8.4  25.6  <--cm   -  kg/ha-->  151.4   62.4  51964 
SOIL ALBEDO    : 0.09      EVAPORATION LIMIT : 6.00         MIN. FACTOR  : 1.00 
RUNOFF CURVE # :76.00      DRAINAGE RATE     : 0.60         FERT. FACTOR : 1.00 
                                                                                
 Maize      CULTIVAR :CI0001-P30F35             ECOTYPE :IB0001                 
 P1     : 212.00  P2     : 0.3000  P5     : 925.00                              
 G2     : 954.00  G3     :  7.000  PHINT  : 50.000                              


*SIMULATED CROP AND SOIL STATUS AT MAIN DEVELOPMENT STAGES

 RUN NO.    35     P12/14                  

        CROP GROWTH     BIOMASS         LEAF   CROP N     STRESS      STRESS                                           
   DATE  AGE STAGE        kg/ha    LAI   NUM  kg/ha  %   H2O  Nitr Phos1 Phos2  RSTG                                   
 ------  --- ----------   -----  -----  ----  ---  ---  ----  ----  ----  ----  ----                                   
 14 NOV    0 Start Sim        0   0.00   0.0    0  0.0  0.00  0.00  0.00  0.00     7
 14 DEC    0 Sowing           0   0.00   0.0    0  0.0  0.00  0.00  0.00  0.00     8
 15 DEC    1 Germinate        0   0.00   0.0    0  0.0  0.00  0.00  0.00  0.00     9
 20 DEC    6 Emergence       25   0.00   2.0    1  4.4  0.00  0.01  0.00  0.00     1
  1 JAN   18 End Juveni      61   0.13   6.9    2  3.4  0.00  0.00  0.00  0.00     2
  5 JAN   22 Floral Ini     139   0.29   8.3    5  3.7  0.00  0.00  0.00  0.00     3
  6 FEB   54 75% Silkin    2849   1.35  17.4   65  2.3  0.41  0.00  0.00  0.00     4
 15 FEB   63 Beg Gr Fil    2947   0.93  17.4   65  2.2  0.87  0.00  0.00  0.00     5
 24 MAR  100 End Gr Fil    3724   0.27  17.4   65  1.8  0.76  0.00  0.00  0.00     6
 27 MAR  103 Maturity      3724   0.27  17.4   65  1.8  0.70  0.00  0.00  0.00    10
 27 MAR  103 Harvest       3724   0.27  17.4   65  1.8  0.00  0.00  0.00  0.00    10


*MAIN GROWTH AND DEVELOPMENT VARIABLES

@     VARIABLE                                         SIMULATED     MEASURED
      --------                                         ---------     --------
      Anthesis day (dap)                                      54          -99
      Physiological maturity day (dap)                       103          -99
      Yield at harvest maturity (kg [dm]/ha)                 947          -99
      Number at maturity (no/m2)                             620          -99
      Unit wt at maturity (g [dm]/unit)                   0.1526          -99
      Number at maturity (no/unit)                         109.4          -99
      Tops weight at maturity (kg [dm]/ha)                  3724          -99
      By-product produced (stalk) at maturity (kg[dm]/ha    2812          -99
      Leaf area index, maximum                              1.87          -99
      Harvest index at maturity                            0.254          -99
      Grain N at maturity (kg/ha)                             18          -99
      Tops N at maturity (kg/ha)                              65          -99
      Stem N at maturity (kg/ha)                              46          -99
      Grain N at maturity (%)                                1.9          -99
      Tops weight at anthesis (kg [dm]/ha)                  2826          -99
      Tops N at anthesis (kg/ha)                              65          -99
      Leaf number per stem at maturity                     17.41          -99
      Emergence day (dap)                                      6          -99


*ENVIRONMENTAL AND STRESS FACTORS

 |-----Development Phase------|--------------------------------------Environment--------------------------------------|-----------------Stress-----------------|
                              |---------------Average--------------|-----Cumulative-----|--------Count of days--------|          (0=Min, 1=Max Stress)         |
                         Time  Temp  Temp  Temp Solar Photop                Evapo    Pot TMIN TMIN TMAX TMAX TMAX RAIN|----Water----|---Nitrogen--|-Phosphorus-|
                         Span   Max   Min  Mean   Rad  [day]    CO2   Rain  Trans     ET   <    <    >    >    >    >   Photo         Photo         Photo
                         days    邂    邂    邂 MJ/m2     hr    ppm     mm     mm     mm  0邂  2邂 30邂 32邂 34邂  0mm  synth Growth  synth Growth  synth Growth
----------------------------------------------------------------------------------------------------------------------------------------------------------------
 Emergence-End Juvenile    12  31.0  19.1  25.0  16.3   0.00  388.5   30.6   35.0   55.1    0    0    7    3    0    4  0.000  0.000  0.002  0.005  0.000  0.000
 End Juvenil-Floral Init    4  30.8  18.0  24.4  17.2   0.00  388.5    0.0    5.6   18.7    0    0    2    1    0    0  0.000  0.000  0.001  0.003  0.000  0.000
 Floral Init-End Lf Grow   32  33.5  18.8  26.2  18.4   0.00  388.7    2.8   63.5  154.1    0    0   30   22   12    4  0.306  0.387  0.000  0.000  0.000  0.000
 End Lf Grth-Beg Grn Fil    9  32.2  19.9  26.1  17.4   0.00  388.8   13.2   11.9   40.7    0    0    7    6    2    2  0.763  0.843  0.000  0.000  0.000  0.000
 Grain Filling Phase       37  33.7  20.3  27.0  16.4   5.11  389.0   44.5   46.5  169.0    0    0   35   31   14   11  0.689  0.763  0.000  0.000  0.000  0.000


 Planting to Harvest      103  32.9  19.5  26.2  17.1   2.21  388.8  130.3  173.3  479.6    0    0   87   69   29   26  0.427  0.490  0.000  0.001  0.000  0.000
----------------------------------------------------------------------------------------------------------------------------------------------------------------


*Resource Productivity
 Growing season length: 103 days 

 Precipitation during growing season       130.3 mm[rain]
   Dry Matter Productivity                  2.86 kg[DM]/m3[rain]          =   28.6 kg[DM]/ha per mm[rain]
   Yield Productivity                       0.73 kg[grain yield]/m3[rain] =    7.3 kg[yield]/ha per mm[rain]

 Evapotranspiration during growing season  173.3 mm[ET]
   Dry Matter Productivity                  2.15 kg[DM]/m3[ET]            =   21.5 kg[DM]/ha per mm[ET]
   Yield Productivity                       0.55 kg[grain yield]/m3[ET]   =    5.5 kg[yield]/ha per mm[ET]

 Transpiration during growing season        73.0 mm[EP]
   Dry Matter Productivity                  5.10 kg[DM]/m3[EP]            =   51.0 kg[DM]/ha per mm[EP]
   Yield Productivity                       1.30 kg[grain yield]/m3[EP]   =   13.0 kg[yield]/ha per mm[EP]

 N applied during growing season            161. kg[N applied]/ha
   Dry Matter Productivity                  23.1 kg[DM]/kg[N applied]
   Yield Productivity                        5.9 kg[yield]/kg[N applied]

 N uptake during growing season               72 kg[N uptake]/ha
   Dry Matter Productivity                  51.7 kg[DM]/kg[N uptake]
   Yield Productivity                       13.2 kg[yield]/kg[N uptake]

--------------------------------------------------------------------------------------------------------------

                     Maize YIELD :      947 kg/ha    [Dry weight] 

**************************************************************************************************************

*DSSAT Cropping System Model Ver. 4.6.1.000 -release      OCT 02, 2017; 14:01:51
                                                                                
*RUN  36        : P12/19                    MZCER046 ANBU2009   36              
 MODEL          : MZCER046 - Maize                                              
 EXPERIMENT     : ANBU2009 MZ  Analisis a침os de bajo rendimiento Buga          
 DATA PATH      : C:\DSSAT46\maize\                                             
 TREATMENT 36   : P12/19                    MZCER046                            
                                                                                
                                                                                
 CROP           : Maize            CULTIVAR : P30F35           ECOTYPE :IB0001  
 STARTING DATE  : NOV 19 2009                                                   
 PLANTING DATE  : DEC 19 2009        PLANTS/m2 :  6.2     ROW SPACING :  80.cm  
 WEATHER        : CUNI   2009                                                   
 SOIL           : CCBUGA2017     TEXTURE : CL    -   Suelo Buga MADR Fase I     
 SOIL INITIAL C : DEPTH: 90cm EXTR. H2O: 83.9mm  NO3:151.4kg/ha  NH4: 62.4kg/ha 
 WATER BALANCE  : RAINFED                                                       
 IRRIGATION     : NOT IRRIGATED                                                 
 NITROGEN BAL.  : SOIL-N & N-UPTAKE SIMULATION; NO N-FIXATION                   
 N-FERTILIZER   :      161 kg/ha IN     5 APPLICATIONS                          
 RESIDUE/MANURE : INITIAL :     0 kg/ha ;       0 kg/ha IN     0 APPLICATIONS   
 ENVIRONM. OPT. : DAYL=    0.00  SRAD=    0.00  TMAX=    0.00  TMIN=    0.00    
                  RAIN=    0.00  CO2 =    0.00  DEW =    0.00  WIND=    0.00    
 SIMULATION OPT : WATER   :Y  NITROGEN:Y  N-FIX:N  PHOSPH :N  PESTS  :N         
                  PHOTO   :C  ET      :R  INFIL:S  HYDROL :R  SOM    :G         
                  CO2 388ppm  NSWIT   :1  EVAP :S  SOIL   :2  STEMP  :D         
 MANAGEMENT OPT : PLANTING:R  IRRIG   :N  FERT :D  RESIDUE:R  HARVEST:M         
                  WEATHER :M  TILLAGE :N                                        
                                                                                
*SUMMARY OF SOIL AND GENETIC INPUT PARAMETERS                                   
                                                                                
   SOIL LOWER UPPER   SAT  EXTR  INIT   ROOT   BULK     pH    NO3    NH4    ORG 
  DEPTH LIMIT LIMIT    SW    SW    SW   DIST   DENS                          C  
   cm   cm3/cm3    cm3/cm3    cm3/cm3         g/cm3         ugN/g  ugN/g     %  
------------------------------------------------------------------------------- 
  0-  5 0.215 0.331 0.341 0.116 0.319   1.00   1.68   6.70  11.90   4.21   0.75 
  5- 15 0.215 0.331 0.341 0.116 0.319   1.00   1.68   6.70  11.90   4.21   0.75 
 15- 25 0.215 0.331 0.341 0.116 0.319   1.00   1.68   6.70  11.90   4.21   0.75 
 25- 35 0.181 0.291 0.364 0.110 0.331   0.50   1.61   7.20  12.15   4.32   0.53 
 35- 45 0.181 0.291 0.364 0.110 0.344   0.50   1.61   7.20  12.40   4.44   0.53 
 45- 67 0.096 0.169 0.404 0.073 0.290   0.27   1.51   7.00  10.67   4.47   0.05 
 67- 90 0.096 0.169 0.404 0.073 0.195   0.27   1.51   7.00   7.63   4.53   0.05 
                                                                                
TOT- 90  13.3  21.7  34.0   8.4  25.6  <--cm   -  kg/ha-->  151.4   62.4  51964 
SOIL ALBEDO    : 0.09      EVAPORATION LIMIT : 6.00         MIN. FACTOR  : 1.00 
RUNOFF CURVE # :76.00      DRAINAGE RATE     : 0.60         FERT. FACTOR : 1.00 
                                                                                
 Maize      CULTIVAR :CI0001-P30F35             ECOTYPE :IB0001                 
 P1     : 212.00  P2     : 0.3000  P5     : 925.00                              
 G2     : 954.00  G3     :  7.000  PHINT  : 50.000                              


*SIMULATED CROP AND SOIL STATUS AT MAIN DEVELOPMENT STAGES

 RUN NO.    36     P12/19                  

        CROP GROWTH     BIOMASS         LEAF   CROP N     STRESS      STRESS                                           
   DATE  AGE STAGE        kg/ha    LAI   NUM  kg/ha  %   H2O  Nitr Phos1 Phos2  RSTG                                   
 ------  --- ----------   -----  -----  ----  ---  ---  ----  ----  ----  ----  ----                                   
 19 NOV    0 Start Sim        0   0.00   0.0    0  0.0  0.00  0.00  0.00  0.00     7
 19 DEC    0 Sowing           0   0.00   0.0    0  0.0  0.00  0.00  0.00  0.00     8
 20 DEC    1 Germinate        0   0.00   0.0    0  0.0  0.00  0.00  0.00  0.00     9
 25 DEC    6 Emergence       25   0.00   2.1    1  4.4  0.00  0.01  0.00  0.00     1
  6 JAN   18 End Juveni      69   0.15   6.9    2  3.3  0.00  0.00  0.00  0.00     2
 10 JAN   22 Floral Ini     165   0.33   8.4    6  3.7  0.00  0.00  0.00  0.00     3
 11 FEB   54 75% Silkin    2828   1.37  17.7   64  2.3  0.42  0.00  0.00  0.00     4
 20 FEB   63 Beg Gr Fil    2854   0.94  17.7   64  2.2  0.88  0.00  0.00  0.00     5
 29 MAR  100 End Gr Fil    3761   0.29  17.7   64  1.7  0.68  0.00  0.00  0.00     6
  1 APR  103 Maturity      3761   0.29  17.7   64  1.7  0.00  0.00  0.00  0.00    10
  1 APR  103 Harvest       3761   0.29  17.7   64  1.7  0.00  0.00  0.00  0.00    10


*MAIN GROWTH AND DEVELOPMENT VARIABLES

@     VARIABLE                                         SIMULATED     MEASURED
      --------                                         ---------     --------
      Anthesis day (dap)                                      54          -99
      Physiological maturity day (dap)                       103          -99
      Yield at harvest maturity (kg [dm]/ha)                 913          -99
      Number at maturity (no/m2)                             569          -99
      Unit wt at maturity (g [dm]/unit)                   0.1604          -99
      Number at maturity (no/unit)                         102.5          -99
      Tops weight at maturity (kg [dm]/ha)                  3761          -99
      By-product produced (stalk) at maturity (kg[dm]/ha    2883          -99
      Leaf area index, maximum                              1.94          -99
      Harvest index at maturity                            0.243          -99
      Grain N at maturity (kg/ha)                             17          -99
      Tops N at maturity (kg/ha)                              64          -99
      Stem N at maturity (kg/ha)                              45          -99
      Grain N at maturity (%)                                1.8          -99
      Tops weight at anthesis (kg [dm]/ha)                  2776          -99
      Tops N at anthesis (kg/ha)                              64          -99
      Leaf number per stem at maturity                     17.66          -99
      Emergence day (dap)                                      6          -99


*ENVIRONMENTAL AND STRESS FACTORS

 |-----Development Phase------|--------------------------------------Environment--------------------------------------|-----------------Stress-----------------|
                              |---------------Average--------------|-----Cumulative-----|--------Count of days--------|          (0=Min, 1=Max Stress)         |
                         Time  Temp  Temp  Temp Solar Photop                Evapo    Pot TMIN TMIN TMAX TMAX TMAX RAIN|----Water----|---Nitrogen--|-Phosphorus-|
                         Span   Max   Min  Mean   Rad  [day]    CO2   Rain  Trans     ET   <    <    >    >    >    >   Photo         Photo         Photo
                         days    邂    邂    邂 MJ/m2     hr    ppm     mm     mm     mm  0邂  2邂 30邂 32邂 34邂  0mm  synth Growth  synth Growth  synth Growth
----------------------------------------------------------------------------------------------------------------------------------------------------------------
 Emergence-End Juvenile    12  31.2  18.8  25.0  16.9   0.00  388.5   21.6   25.2   56.7    0    0    8    4    0    3  0.000  0.000  0.002  0.004  0.000  0.000
 End Juvenil-Floral Init    4  32.9  18.6  25.7  19.1   0.00  388.5    0.3    5.0   21.1    0    0    4    2    0    1  0.000  0.000  0.002  0.004  0.000  0.000
 Floral Init-End Lf Grow   32  33.1  19.0  26.1  18.0   0.00  388.7   15.7   64.8  150.3    0    0   28   21   12    5  0.294  0.390  0.000  0.000  0.000  0.000
 End Lf Grth-Beg Grn Fil    9  34.2  20.1  27.1  17.8   0.00  388.9    4.2   13.1   42.6    0    0    9    9    3    1  0.815  0.877  0.000  0.000  0.000  0.000
 Grain Filling Phase       37  33.6  20.4  27.0  16.5   6.90  389.1   60.7   53.0  169.4    0    0   35   30   14   12  0.636  0.706  0.000  0.000  0.000  0.000


 Planting to Harvest      103  33.0  19.6  26.3  17.1   2.91  388.8  143.0  187.0  478.3    0    0   89   70   29   25  0.391  0.451  0.000  0.001  0.000  0.000
----------------------------------------------------------------------------------------------------------------------------------------------------------------


*Resource Productivity
 Growing season length: 103 days 

 Precipitation during growing season       143.0 mm[rain]
   Dry Matter Productivity                  2.63 kg[DM]/m3[rain]          =   26.3 kg[DM]/ha per mm[rain]
   Yield Productivity                       0.64 kg[grain yield]/m3[rain] =    6.4 kg[yield]/ha per mm[rain]

 Evapotranspiration during growing season  187.0 mm[ET]
   Dry Matter Productivity                  2.01 kg[DM]/m3[ET]            =   20.1 kg[DM]/ha per mm[ET]
   Yield Productivity                       0.49 kg[grain yield]/m3[ET]   =    4.9 kg[yield]/ha per mm[ET]

 Transpiration during growing season        78.9 mm[EP]
   Dry Matter Productivity                  4.77 kg[DM]/m3[EP]            =   47.7 kg[DM]/ha per mm[EP]
   Yield Productivity                       1.16 kg[grain yield]/m3[EP]   =   11.6 kg[yield]/ha per mm[EP]

 N applied during growing season            161. kg[N applied]/ha
   Dry Matter Productivity                  23.4 kg[DM]/kg[N applied]
   Yield Productivity                        5.7 kg[yield]/kg[N applied]

 N uptake during growing season               72 kg[N uptake]/ha
   Dry Matter Productivity                  52.2 kg[DM]/kg[N uptake]
   Yield Productivity                       12.7 kg[yield]/kg[N uptake]

--------------------------------------------------------------------------------------------------------------

                     Maize YIELD :      913 kg/ha    [Dry weight] 

**************************************************************************************************************
