*SIMULATION OVERVIEW FILE

*DSSAT Cropping System Model Ver. 4.6.1.000 -release      OCT 24, 2017; 10:44:34
                                                                                
*RUN   1        : P04/02                    MZCER046 ANBU2002    1              
 MODEL          : MZCER046 - Maize                                              
 EXPERIMENT     : ANBU2002 MZ  Analisis a침os de bajo rendimiento Buga          
 DATA PATH      : C:\DSSAT46\maize\                                             
 TREATMENT  1   : P04/02                    MZCER046                            
                                                                                
                                                                                
 CROP           : Maize            CULTIVAR : P30F35           ECOTYPE :IB0001  
 STARTING DATE  : MAR  3 2002                                                   
 PLANTING DATE  : APR  2 2002        PLANTS/m2 :  6.2     ROW SPACING :  80.cm  
 WEATHER        : CUNI   2002                                                   
 SOIL           : CCBUGA2017     TEXTURE : CL    -   Suelo Buga MADR Fase I     
 SOIL INITIAL C : DEPTH: 90cm EXTR. H2O: 83.9mm  NO3:  0.0kg/ha  NH4:  0.0kg/ha 
 WATER BALANCE  : RAINFED                                                       
 IRRIGATION     : NOT IRRIGATED                                                 
 NITROGEN BAL.  : SOIL-N & N-UPTAKE SIMULATION; NO N-FIXATION                   
 N-FERTILIZER   :      161 kg/ha IN     5 APPLICATIONS                          
 RESIDUE/MANURE : INITIAL :     0 kg/ha ;       0 kg/ha IN     0 APPLICATIONS   
 ENVIRONM. OPT. : DAYL=    0.00  SRAD=    0.00  TMAX=    0.00  TMIN=    0.00    
                  RAIN=    0.00  CO2 =    0.00  DEW =    0.00  WIND=    0.00    
 SIMULATION OPT : WATER   :Y  NITROGEN:Y  N-FIX:N  PHOSPH :N  PESTS  :N         
                  PHOTO   :C  ET      :R  INFIL:S  HYDROL :R  SOM    :G         
                  CO2 372ppm  NSWIT   :1  EVAP :S  SOIL   :2  STEMP  :D         
 MANAGEMENT OPT : PLANTING:R  IRRIG   :N  FERT :D  RESIDUE:R  HARVEST:M         
                  WEATHER :M  TILLAGE :N                                        
                                                                                
*SUMMARY OF SOIL AND GENETIC INPUT PARAMETERS                                   
                                                                                
   SOIL LOWER UPPER   SAT  EXTR  INIT   ROOT   BULK     pH    NO3    NH4    ORG 
  DEPTH LIMIT LIMIT    SW    SW    SW   DIST   DENS                          C  
   cm   cm3/cm3    cm3/cm3    cm3/cm3         g/cm3         ugN/g  ugN/g     %  
------------------------------------------------------------------------------- 
  0-  5 0.215 0.331 0.341 0.116 0.331   1.00   1.68   6.70   0.00   0.00   0.75 
  5- 15 0.215 0.331 0.341 0.116 0.331   1.00   1.68   6.70   0.00   0.00   0.75 
 15- 25 0.215 0.331 0.341 0.116 0.331   1.00   1.68   6.70   0.00   0.00   0.75 
 25- 35 0.181 0.291 0.364 0.110 0.291   0.50   1.61   7.20   0.00   0.00   0.53 
 35- 45 0.181 0.291 0.364 0.110 0.291   0.50   1.61   7.20   0.00   0.00   0.53 
 45- 67 0.096 0.169 0.404 0.073 0.169   0.27   1.51   7.00   0.00   0.00   0.05 
 67- 90 0.096 0.169 0.404 0.073 0.169   0.27   1.51   7.00   0.00   0.00   0.05 
                                                                                
TOT- 90  13.3  21.7  34.0   8.4  21.7  <--cm   -  kg/ha-->    0.0    0.0  51964 
SOIL ALBEDO    : 0.09      EVAPORATION LIMIT : 6.00         MIN. FACTOR  : 1.00 
RUNOFF CURVE # :76.00      DRAINAGE RATE     : 0.60         FERT. FACTOR : 1.00 
                                                                                
 Maize      CULTIVAR :CI0001-P30F35             ECOTYPE :IB0001                 
 P1     : 200.00  P2     : 0.3000  P5     : 925.00                              
 G2     : 954.00  G3     :  7.000  PHINT  : 50.000                              


*SIMULATED CROP AND SOIL STATUS AT MAIN DEVELOPMENT STAGES

 RUN NO.     1     P04/02                  

        CROP GROWTH     BIOMASS         LEAF   CROP N     STRESS      STRESS                                           
   DATE  AGE STAGE        kg/ha    LAI   NUM  kg/ha  %   H2O  Nitr Phos1 Phos2  RSTG                                   
 ------  --- ----------   -----  -----  ----  ---  ---  ----  ----  ----  ----  ----                                   
  3 MAR    0 Start Sim        0   0.00   0.0    0  0.0  0.00  0.00  0.00  0.00     7
  2 APR    0 Sowing           0   0.00   0.0    0  0.0  0.00  0.00  0.00  0.00     8
  3 APR    1 Germinate        0   0.00   0.0    0  0.0  0.00  0.00  0.00  0.00     9
  8 APR    6 Emergence       25   0.00   2.1    1  4.4  0.00  0.01  0.00  0.00     1
 19 APR   17 End Juveni      70   0.15   6.5    2  3.4  0.00  0.00  0.00  0.00     2
 25 APR   23 Floral Ini     170   0.34   8.5    6  3.6  0.00  0.00  0.00  0.00     3
 31 MAY   59 75% Silkin    4579   2.34  18.1   90  2.0  0.07  0.07  0.00  0.00     4
 10 JUN   69 Beg Gr Fil    5568   1.99  18.1   93  1.7  0.38  0.00  0.00  0.00     5
 23 JUL  112 End Gr Fil    7723   0.53  18.1   94  1.2  0.68  0.00  0.00  0.00     6
 25 JUL  114 Maturity      7723   0.53  18.1   94  1.2  0.93  0.00  0.00  0.00    10
 25 JUL  114 Harvest       7723   0.53  18.1   94  1.2  0.00  0.00  0.00  0.00    10


*MAIN GROWTH AND DEVELOPMENT VARIABLES

@     VARIABLE                                         SIMULATED     MEASURED
      --------                                         ---------     --------
      Anthesis day (dap)                                      59          -99
      Physiological maturity day (dap)                       114          -99
      Yield at harvest maturity (kg [dm]/ha)                3146          -99
      Number at maturity (no/m2)                            1582          -99
      Unit wt at maturity (g [dm]/unit)                   0.1988          -99
      Number at maturity (no/unit)                         255.2          -99
      Tops weight at maturity (kg [dm]/ha)                  7723          -99
      By-product produced (stalk) at maturity (kg[dm]/ha    4618          -99
      Leaf area index, maximum                              2.35          -99
      Harvest index at maturity                            0.407          -99
      Grain N at maturity (kg/ha)                             57          -99
      Tops N at maturity (kg/ha)                              94          -99
      Stem N at maturity (kg/ha)                              37          -99
      Grain N at maturity (%)                                1.8          -99
      Tops weight at anthesis (kg [dm]/ha)                  4471          -99
      Tops N at anthesis (kg/ha)                              90          -99
      Leaf number per stem at maturity                     18.05          -99
      Emergence day (dap)                                      6          -99


*ENVIRONMENTAL AND STRESS FACTORS

 |-----Development Phase------|--------------------------------------Environment--------------------------------------|-----------------Stress-----------------|
                              |---------------Average--------------|-----Cumulative-----|--------Count of days--------|          (0=Min, 1=Max Stress)         |
                         Time  Temp  Temp  Temp Solar Photop                Evapo    Pot TMIN TMIN TMAX TMAX TMAX RAIN|----Water----|---Nitrogen--|-Phosphorus-|
                         Span   Max   Min  Mean   Rad  [day]    CO2   Rain  Trans     ET   <    <    >    >    >    >   Photo         Photo         Photo
                         days    邂    邂    邂 MJ/m2     hr    ppm     mm     mm     mm  0邂  2邂 30邂 32邂 34邂  0mm  synth Growth  synth Growth  synth Growth
----------------------------------------------------------------------------------------------------------------------------------------------------------------
 Emergence-End Juvenile    11  31.0  19.3  25.2  14.5  21.65  372.4   39.0   25.8   44.8    0    0    8    4    0    4  0.000  0.000  0.002  0.005  0.000  0.000
 End Juvenil-Floral Init    6  28.7  19.9  24.3  13.4  24.00  372.5   51.0   13.8   21.8    0    0    2    0    0    4  0.000  0.000  0.000  0.001  0.000  0.000
 Floral Init-End Lf Grow   36  29.1  19.5  24.3  14.7  24.00  372.6   69.8  114.2  131.2    0    0   13    2    0   13  0.019  0.057  0.030  0.074  0.000  0.000
 End Lf Grth-Beg Grn Fil   10  30.2  18.6  24.4  14.1  24.00  372.7   37.4   24.6   34.0    0    0    6    1    0    7  0.324  0.416  0.000  0.000  0.000  0.000
 Grain Filling Phase       43  30.5  19.0  24.7  17.2  24.00  372.9   51.2   82.2  185.4    0    0   29    9    0   11  0.599  0.654  0.000  0.000  0.000  0.000


 Planting to Harvest      114  30.0  19.2  24.6  15.6  23.39  372.7  305.8  287.8  451.1    0    0   63   18    1   43  0.276  0.317  0.010  0.024  0.000  0.000
----------------------------------------------------------------------------------------------------------------------------------------------------------------


*Resource Productivity
 Growing season length: 114 days 

 Precipitation during growing season       305.8 mm[rain]
   Dry Matter Productivity                  2.53 kg[DM]/m3[rain]          =   25.3 kg[DM]/ha per mm[rain]
   Yield Productivity                       1.03 kg[grain yield]/m3[rain] =   10.3 kg[yield]/ha per mm[rain]

 Evapotranspiration during growing season  287.8 mm[ET]
   Dry Matter Productivity                  2.68 kg[DM]/m3[ET]            =   26.8 kg[DM]/ha per mm[ET]
   Yield Productivity                       1.09 kg[grain yield]/m3[ET]   =   10.9 kg[yield]/ha per mm[ET]

 Transpiration during growing season       141.2 mm[EP]
   Dry Matter Productivity                  5.47 kg[DM]/m3[EP]            =   54.7 kg[DM]/ha per mm[EP]
   Yield Productivity                       2.23 kg[grain yield]/m3[EP]   =   22.3 kg[yield]/ha per mm[EP]

 N applied during growing season            161. kg[N applied]/ha
   Dry Matter Productivity                  48.0 kg[DM]/kg[N applied]
   Yield Productivity                       19.5 kg[yield]/kg[N applied]

 N uptake during growing season              105 kg[N uptake]/ha
   Dry Matter Productivity                  73.6 kg[DM]/kg[N uptake]
   Yield Productivity                       30.0 kg[yield]/kg[N uptake]

--------------------------------------------------------------------------------------------------------------

                     Maize YIELD :     3146 kg/ha    [Dry weight] 

**************************************************************************************************************

*DSSAT Cropping System Model Ver. 4.6.1.000 -release      OCT 24, 2017; 10:44:34
                                                                                
*RUN   2        : P04/07                    MZCER046 ANBU2002    2              
 MODEL          : MZCER046 - Maize                                              
 EXPERIMENT     : ANBU2002 MZ  Analisis a침os de bajo rendimiento Buga          
 DATA PATH      : C:\DSSAT46\maize\                                             
 TREATMENT  2   : P04/07                    MZCER046                            
                                                                                
                                                                                
 CROP           : Maize            CULTIVAR : P30F35           ECOTYPE :IB0001  
 STARTING DATE  : MAR  8 2002                                                   
 PLANTING DATE  : APR  7 2002        PLANTS/m2 :  6.2     ROW SPACING :  80.cm  
 WEATHER        : CUNI   2002                                                   
 SOIL           : CCBUGA2017     TEXTURE : CL    -   Suelo Buga MADR Fase I     
 SOIL INITIAL C : DEPTH: 90cm EXTR. H2O: 83.9mm  NO3:  0.0kg/ha  NH4:  0.0kg/ha 
 WATER BALANCE  : RAINFED                                                       
 IRRIGATION     : NOT IRRIGATED                                                 
 NITROGEN BAL.  : SOIL-N & N-UPTAKE SIMULATION; NO N-FIXATION                   
 N-FERTILIZER   :      161 kg/ha IN     5 APPLICATIONS                          
 RESIDUE/MANURE : INITIAL :     0 kg/ha ;       0 kg/ha IN     0 APPLICATIONS   
 ENVIRONM. OPT. : DAYL=    0.00  SRAD=    0.00  TMAX=    0.00  TMIN=    0.00    
                  RAIN=    0.00  CO2 =    0.00  DEW =    0.00  WIND=    0.00    
 SIMULATION OPT : WATER   :Y  NITROGEN:Y  N-FIX:N  PHOSPH :N  PESTS  :N         
                  PHOTO   :C  ET      :R  INFIL:S  HYDROL :R  SOM    :G         
                  CO2 372ppm  NSWIT   :1  EVAP :S  SOIL   :2  STEMP  :D         
 MANAGEMENT OPT : PLANTING:R  IRRIG   :N  FERT :D  RESIDUE:R  HARVEST:M         
                  WEATHER :M  TILLAGE :N                                        
                                                                                
*SUMMARY OF SOIL AND GENETIC INPUT PARAMETERS                                   
                                                                                
   SOIL LOWER UPPER   SAT  EXTR  INIT   ROOT   BULK     pH    NO3    NH4    ORG 
  DEPTH LIMIT LIMIT    SW    SW    SW   DIST   DENS                          C  
   cm   cm3/cm3    cm3/cm3    cm3/cm3         g/cm3         ugN/g  ugN/g     %  
------------------------------------------------------------------------------- 
  0-  5 0.215 0.331 0.341 0.116 0.331   1.00   1.68   6.70   0.00   0.00   0.75 
  5- 15 0.215 0.331 0.341 0.116 0.331   1.00   1.68   6.70   0.00   0.00   0.75 
 15- 25 0.215 0.331 0.341 0.116 0.331   1.00   1.68   6.70   0.00   0.00   0.75 
 25- 35 0.181 0.291 0.364 0.110 0.291   0.50   1.61   7.20   0.00   0.00   0.53 
 35- 45 0.181 0.291 0.364 0.110 0.291   0.50   1.61   7.20   0.00   0.00   0.53 
 45- 67 0.096 0.169 0.404 0.073 0.169   0.27   1.51   7.00   0.00   0.00   0.05 
 67- 90 0.096 0.169 0.404 0.073 0.169   0.27   1.51   7.00   0.00   0.00   0.05 
                                                                                
TOT- 90  13.3  21.7  34.0   8.4  21.7  <--cm   -  kg/ha-->    0.0    0.0  51964 
SOIL ALBEDO    : 0.09      EVAPORATION LIMIT : 6.00         MIN. FACTOR  : 1.00 
RUNOFF CURVE # :76.00      DRAINAGE RATE     : 0.60         FERT. FACTOR : 1.00 
                                                                                
 Maize      CULTIVAR :CI0001-P30F35             ECOTYPE :IB0001                 
 P1     : 200.00  P2     : 0.3000  P5     : 925.00                              
 G2     : 954.00  G3     :  7.000  PHINT  : 50.000                              


*SIMULATED CROP AND SOIL STATUS AT MAIN DEVELOPMENT STAGES

 RUN NO.     2     P04/07                  

        CROP GROWTH     BIOMASS         LEAF   CROP N     STRESS      STRESS                                           
   DATE  AGE STAGE        kg/ha    LAI   NUM  kg/ha  %   H2O  Nitr Phos1 Phos2  RSTG                                   
 ------  --- ----------   -----  -----  ----  ---  ---  ----  ----  ----  ----  ----                                   
  8 MAR    0 Start Sim        0   0.00   0.0    0  0.0  0.00  0.00  0.00  0.00     7
  7 APR    0 Sowing           0   0.00   0.0    0  0.0  0.00  0.00  0.00  0.00     8
  8 APR    1 Germinate        0   0.00   0.0    0  0.0  0.00  0.00  0.00  0.00     9
 13 APR    6 Emergence       25   0.00   2.1    1  4.4  0.00  0.01  0.00  0.00     1
 24 APR   17 End Juveni      56   0.12   6.4    2  3.7  0.00  0.00  0.00  0.00     2
  1 MAY   24 Floral Ini     149   0.30   8.8    5  3.6  0.00  0.00  0.00  0.00     3
  7 JUN   61 75% Silkin    4381   2.12  18.6   88  2.0  0.10  0.09  0.00  0.00     4
 17 JUN   71 Beg Gr Fil    6598   2.12  18.6   90  1.4  0.00  0.00  0.00  0.00     5
 29 JUL  113 End Gr Fil    8411   0.44  18.6   99  1.2  0.82  0.00  0.00  0.00     6
  1 AUG  116 Maturity      8411   0.44  18.6   99  1.2  0.93  0.00  0.00  0.00    10
  1 AUG  116 Harvest       8411   0.44  18.6   99  1.2  0.00  0.00  0.00  0.00    10


*MAIN GROWTH AND DEVELOPMENT VARIABLES

@     VARIABLE                                         SIMULATED     MEASURED
      --------                                         ---------     --------
      Anthesis day (dap)                                      61          -99
      Physiological maturity day (dap)                       116          -99
      Yield at harvest maturity (kg [dm]/ha)                3136          -99
      Number at maturity (no/m2)                            2702          -99
      Unit wt at maturity (g [dm]/unit)                   0.1161          -99
      Number at maturity (no/unit)                         435.8          -99
      Tops weight at maturity (kg [dm]/ha)                  8411          -99
      By-product produced (stalk) at maturity (kg[dm]/ha    5316          -99
      Leaf area index, maximum                              2.21          -99
      Harvest index at maturity                            0.373          -99
      Grain N at maturity (kg/ha)                             58          -99
      Tops N at maturity (kg/ha)                              99          -99
      Stem N at maturity (kg/ha)                              41          -99
      Grain N at maturity (%)                                1.8          -99
      Tops weight at anthesis (kg [dm]/ha)                  4279          -99
      Tops N at anthesis (kg/ha)                              88          -99
      Leaf number per stem at maturity                     18.60          -99
      Emergence day (dap)                                      6          -99


*ENVIRONMENTAL AND STRESS FACTORS

 |-----Development Phase------|--------------------------------------Environment--------------------------------------|-----------------Stress-----------------|
                              |---------------Average--------------|-----Cumulative-----|--------Count of days--------|          (0=Min, 1=Max Stress)         |
                         Time  Temp  Temp  Temp Solar Photop                Evapo    Pot TMIN TMIN TMAX TMAX TMAX RAIN|----Water----|---Nitrogen--|-Phosphorus-|
                         Span   Max   Min  Mean   Rad  [day]    CO2   Rain  Trans     ET   <    <    >    >    >    >   Photo         Photo         Photo
                         days    邂    邂    邂 MJ/m2     hr    ppm     mm     mm     mm  0邂  2邂 30邂 32邂 34邂  0mm  synth Growth  synth Growth  synth Growth
----------------------------------------------------------------------------------------------------------------------------------------------------------------
 Emergence-End Juvenile    11  30.0  19.7  24.8  15.0  23.71  372.5   28.0   16.8   46.0    0    0    6    2    0    5  0.000  0.000  0.002  0.004  0.000  0.000
 End Juvenil-Floral Init    7  29.0  19.5  24.3  14.3  24.00  372.5   53.0   27.2   27.2    0    0    3    0    0    6  0.000  0.000  0.000  0.000  0.000  0.000
 Floral Init-End Lf Grow   37  29.3  19.4  24.3  14.6  24.00  372.6   71.4  103.9  134.0    0    0   15    3    0   12  0.063  0.096  0.037  0.087  0.000  0.000
 End Lf Grth-Beg Grn Fil   10  30.9  18.6  24.8  17.1  24.00  372.8   39.8   41.3   41.6    0    0    7    3    0    6  0.000  0.000  0.000  0.000  0.000  0.000
 Grain Filling Phase       42  30.4  18.9  24.7  17.4  24.00  373.0   22.2   56.4  183.5    0    0   27    8    1    8  0.738  0.802  0.000  0.000  0.000  0.000


 Planting to Harvest      116  30.0  19.1  24.5  15.8  23.72  372.8  252.6  268.1  468.6    0    0   64   18    1   40  0.310  0.345  0.012  0.028  0.000  0.000
----------------------------------------------------------------------------------------------------------------------------------------------------------------


*Resource Productivity
 Growing season length: 116 days 

 Precipitation during growing season       252.6 mm[rain]
   Dry Matter Productivity                  3.33 kg[DM]/m3[rain]          =   33.3 kg[DM]/ha per mm[rain]
   Yield Productivity                       1.24 kg[grain yield]/m3[rain] =   12.4 kg[yield]/ha per mm[rain]

 Evapotranspiration during growing season  268.1 mm[ET]
   Dry Matter Productivity                  3.14 kg[DM]/m3[ET]            =   31.4 kg[DM]/ha per mm[ET]
   Yield Productivity                       1.17 kg[grain yield]/m3[ET]   =   11.7 kg[yield]/ha per mm[ET]

 Transpiration during growing season       132.3 mm[EP]
   Dry Matter Productivity                  6.36 kg[DM]/m3[EP]            =   63.6 kg[DM]/ha per mm[EP]
   Yield Productivity                       2.37 kg[grain yield]/m3[EP]   =   23.7 kg[yield]/ha per mm[EP]

 N applied during growing season            161. kg[N applied]/ha
   Dry Matter Productivity                  52.2 kg[DM]/kg[N applied]
   Yield Productivity                       19.5 kg[yield]/kg[N applied]

 N uptake during growing season              107 kg[N uptake]/ha
   Dry Matter Productivity                  78.6 kg[DM]/kg[N uptake]
   Yield Productivity                       29.3 kg[yield]/kg[N uptake]

--------------------------------------------------------------------------------------------------------------

                     Maize YIELD :     3136 kg/ha    [Dry weight] 

**************************************************************************************************************

*DSSAT Cropping System Model Ver. 4.6.1.000 -release      OCT 24, 2017; 10:44:35
                                                                                
*RUN   3        : P04/12                    MZCER046 ANBU2002    3              
 MODEL          : MZCER046 - Maize                                              
 EXPERIMENT     : ANBU2002 MZ  Analisis a침os de bajo rendimiento Buga          
 DATA PATH      : C:\DSSAT46\maize\                                             
 TREATMENT  3   : P04/12                    MZCER046                            
                                                                                
                                                                                
 CROP           : Maize            CULTIVAR : P30F35           ECOTYPE :IB0001  
 STARTING DATE  : MAR 13 2002                                                   
 PLANTING DATE  : APR 12 2002        PLANTS/m2 :  6.2     ROW SPACING :  80.cm  
 WEATHER        : CUNI   2002                                                   
 SOIL           : CCBUGA2017     TEXTURE : CL    -   Suelo Buga MADR Fase I     
 SOIL INITIAL C : DEPTH: 90cm EXTR. H2O: 83.9mm  NO3:  0.0kg/ha  NH4:  0.0kg/ha 
 WATER BALANCE  : RAINFED                                                       
 IRRIGATION     : NOT IRRIGATED                                                 
 NITROGEN BAL.  : SOIL-N & N-UPTAKE SIMULATION; NO N-FIXATION                   
 N-FERTILIZER   :      161 kg/ha IN     5 APPLICATIONS                          
 RESIDUE/MANURE : INITIAL :     0 kg/ha ;       0 kg/ha IN     0 APPLICATIONS   
 ENVIRONM. OPT. : DAYL=    0.00  SRAD=    0.00  TMAX=    0.00  TMIN=    0.00    
                  RAIN=    0.00  CO2 =    0.00  DEW =    0.00  WIND=    0.00    
 SIMULATION OPT : WATER   :Y  NITROGEN:Y  N-FIX:N  PHOSPH :N  PESTS  :N         
                  PHOTO   :C  ET      :R  INFIL:S  HYDROL :R  SOM    :G         
                  CO2 372ppm  NSWIT   :1  EVAP :S  SOIL   :2  STEMP  :D         
 MANAGEMENT OPT : PLANTING:R  IRRIG   :N  FERT :D  RESIDUE:R  HARVEST:M         
                  WEATHER :M  TILLAGE :N                                        
                                                                                
*SUMMARY OF SOIL AND GENETIC INPUT PARAMETERS                                   
                                                                                
   SOIL LOWER UPPER   SAT  EXTR  INIT   ROOT   BULK     pH    NO3    NH4    ORG 
  DEPTH LIMIT LIMIT    SW    SW    SW   DIST   DENS                          C  
   cm   cm3/cm3    cm3/cm3    cm3/cm3         g/cm3         ugN/g  ugN/g     %  
------------------------------------------------------------------------------- 
  0-  5 0.215 0.331 0.341 0.116 0.331   1.00   1.68   6.70   0.00   0.00   0.75 
  5- 15 0.215 0.331 0.341 0.116 0.331   1.00   1.68   6.70   0.00   0.00   0.75 
 15- 25 0.215 0.331 0.341 0.116 0.331   1.00   1.68   6.70   0.00   0.00   0.75 
 25- 35 0.181 0.291 0.364 0.110 0.291   0.50   1.61   7.20   0.00   0.00   0.53 
 35- 45 0.181 0.291 0.364 0.110 0.291   0.50   1.61   7.20   0.00   0.00   0.53 
 45- 67 0.096 0.169 0.404 0.073 0.169   0.27   1.51   7.00   0.00   0.00   0.05 
 67- 90 0.096 0.169 0.404 0.073 0.169   0.27   1.51   7.00   0.00   0.00   0.05 
                                                                                
TOT- 90  13.3  21.7  34.0   8.4  21.7  <--cm   -  kg/ha-->    0.0    0.0  51964 
SOIL ALBEDO    : 0.09      EVAPORATION LIMIT : 6.00         MIN. FACTOR  : 1.00 
RUNOFF CURVE # :76.00      DRAINAGE RATE     : 0.60         FERT. FACTOR : 1.00 
                                                                                
 Maize      CULTIVAR :CI0001-P30F35             ECOTYPE :IB0001                 
 P1     : 200.00  P2     : 0.3000  P5     : 925.00                              
 G2     : 954.00  G3     :  7.000  PHINT  : 50.000                              


*SIMULATED CROP AND SOIL STATUS AT MAIN DEVELOPMENT STAGES

 RUN NO.     3     P04/12                  

        CROP GROWTH     BIOMASS         LEAF   CROP N     STRESS      STRESS                                           
   DATE  AGE STAGE        kg/ha    LAI   NUM  kg/ha  %   H2O  Nitr Phos1 Phos2  RSTG                                   
 ------  --- ----------   -----  -----  ----  ---  ---  ----  ----  ----  ----  ----                                   
 13 MAR    0 Start Sim        0   0.00   0.0    0  0.0  0.00  0.00  0.00  0.00     7
 12 APR    0 Sowing           0   0.00   0.0    0  0.0  0.00  0.00  0.00  0.00     8
 13 APR    1 Germinate        0   0.00   0.0    0  0.0  0.00  0.00  0.00  0.00     9
 18 APR    6 Emergence       25   0.00   2.0    1  4.4  0.00  0.01  0.00  0.00     1
 30 APR   18 End Juveni      44   0.10   6.6    1  3.2  0.00  0.00  0.00  0.00     2
  7 MAY   25 Floral Ini     190   0.37   8.9    7  3.6  0.00  0.00  0.00  0.00     3
 13 JUN   62 75% Silkin    4664   2.48  18.9   94  2.0  0.08  0.06  0.00  0.00     4
 23 JUN   72 Beg Gr Fil    6471   2.21  18.9   96  1.5  0.32  0.00  0.00  0.00     5
  5 AUG  115 End Gr Fil    7647   0.37  18.9   96  1.3  0.88  0.00  0.00  0.00     6
  8 AUG  118 Maturity      7647   0.37  18.9   96  1.3  0.90  0.00  0.00  0.00    10
  8 AUG  118 Harvest       7647   0.37  18.9   96  1.3  0.00  0.00  0.00  0.00    10


*MAIN GROWTH AND DEVELOPMENT VARIABLES

@     VARIABLE                                         SIMULATED     MEASURED
      --------                                         ---------     --------
      Anthesis day (dap)                                      62          -99
      Physiological maturity day (dap)                       118          -99
      Yield at harvest maturity (kg [dm]/ha)                2426          -99
      Number at maturity (no/m2)                            2536          -99
      Unit wt at maturity (g [dm]/unit)                   0.0957          -99
      Number at maturity (no/unit)                         409.0          -99
      Tops weight at maturity (kg [dm]/ha)                  7647          -99
      By-product produced (stalk) at maturity (kg[dm]/ha    5264          -99
      Leaf area index, maximum                              2.48          -99
      Harvest index at maturity                            0.317          -99
      Grain N at maturity (kg/ha)                             46          -99
      Tops N at maturity (kg/ha)                              96          -99
      Stem N at maturity (kg/ha)                              51          -99
      Grain N at maturity (%)                                1.9          -99
      Tops weight at anthesis (kg [dm]/ha)                  4442          -99
      Tops N at anthesis (kg/ha)                              92          -99
      Leaf number per stem at maturity                     18.85          -99
      Emergence day (dap)                                      6          -99


*ENVIRONMENTAL AND STRESS FACTORS

 |-----Development Phase------|--------------------------------------Environment--------------------------------------|-----------------Stress-----------------|
                              |---------------Average--------------|-----Cumulative-----|--------Count of days--------|          (0=Min, 1=Max Stress)         |
                         Time  Temp  Temp  Temp Solar Photop                Evapo    Pot TMIN TMIN TMAX TMAX TMAX RAIN|----Water----|---Nitrogen--|-Phosphorus-|
                         Span   Max   Min  Mean   Rad  [day]    CO2   Rain  Trans     ET   <    <    >    >    >    >   Photo         Photo         Photo
                         days    邂    邂    邂 MJ/m2     hr    ppm     mm     mm     mm  0邂  2邂 30邂 32邂 34邂  0mm  synth Growth  synth Growth  synth Growth
----------------------------------------------------------------------------------------------------------------------------------------------------------------
 Emergence-End Juvenile    12  28.8  19.8  24.3  13.5  24.00  372.5   80.0   33.3   44.8    0    0    4    0    0   10  0.000  0.000  0.002  0.004  0.000  0.000
 End Juvenil-Floral Init    7  28.7  19.5  24.1  15.2  24.00  372.5    0.0   15.6   28.7    0    0    3    0    0    0  0.000  0.000  0.001  0.003  0.000  0.000
 Floral Init-End Lf Grow   37  29.6  19.2  24.4  14.7  24.00  372.7  111.2  107.3  134.9    0    0   16    4    0   18  0.054  0.081  0.022  0.056  0.000  0.000
 End Lf Grth-Beg Grn Fil   10  30.7  19.0  24.9  17.9  24.00  372.9    0.0   36.5   43.0    0    0    8    2    0    0  0.167  0.244  0.000  0.000  0.000  0.000
 Grain Filling Phase       43  30.3  18.6  24.4  17.8  24.00  373.0   26.4   45.3  192.7    0    0   25    9    1    9  0.824  0.876  0.000  0.000  0.000  0.000


 Planting to Harvest      118  29.9  19.0  24.5  16.2  23.95  372.8  218.6  248.5  486.9    0    0   64   18    1   38  0.354  0.388  0.007  0.018  0.000  0.000
----------------------------------------------------------------------------------------------------------------------------------------------------------------


*Resource Productivity
 Growing season length: 118 days 

 Precipitation during growing season       218.6 mm[rain]
   Dry Matter Productivity                  3.50 kg[DM]/m3[rain]          =   35.0 kg[DM]/ha per mm[rain]
   Yield Productivity                       1.11 kg[grain yield]/m3[rain] =   11.1 kg[yield]/ha per mm[rain]

 Evapotranspiration during growing season  248.5 mm[ET]
   Dry Matter Productivity                  3.08 kg[DM]/m3[ET]            =   30.8 kg[DM]/ha per mm[ET]
   Yield Productivity                       0.98 kg[grain yield]/m3[ET]   =    9.8 kg[yield]/ha per mm[ET]

 Transpiration during growing season       125.4 mm[EP]
   Dry Matter Productivity                  6.10 kg[DM]/m3[EP]            =   61.0 kg[DM]/ha per mm[EP]
   Yield Productivity                       1.94 kg[grain yield]/m3[EP]   =   19.4 kg[yield]/ha per mm[EP]

 N applied during growing season            161. kg[N applied]/ha
   Dry Matter Productivity                  47.5 kg[DM]/kg[N applied]
   Yield Productivity                       15.1 kg[yield]/kg[N applied]

 N uptake during growing season              106 kg[N uptake]/ha
   Dry Matter Productivity                  72.1 kg[DM]/kg[N uptake]
   Yield Productivity                       22.9 kg[yield]/kg[N uptake]

--------------------------------------------------------------------------------------------------------------

                     Maize YIELD :     2426 kg/ha    [Dry weight] 

**************************************************************************************************************

*DSSAT Cropping System Model Ver. 4.6.1.000 -release      OCT 24, 2017; 10:44:35
                                                                                
*RUN   4        : P04/17                    MZCER046 ANBU2002    4              
 MODEL          : MZCER046 - Maize                                              
 EXPERIMENT     : ANBU2002 MZ  Analisis a침os de bajo rendimiento Buga          
 DATA PATH      : C:\DSSAT46\maize\                                             
 TREATMENT  4   : P04/17                    MZCER046                            
                                                                                
                                                                                
 CROP           : Maize            CULTIVAR : P30F35           ECOTYPE :IB0001  
 STARTING DATE  : MAR 18 2002                                                   
 PLANTING DATE  : APR 17 2002        PLANTS/m2 :  6.2     ROW SPACING :  80.cm  
 WEATHER        : CUNI   2002                                                   
 SOIL           : CCBUGA2017     TEXTURE : CL    -   Suelo Buga MADR Fase I     
 SOIL INITIAL C : DEPTH: 90cm EXTR. H2O: 83.9mm  NO3:  0.0kg/ha  NH4:  0.0kg/ha 
 WATER BALANCE  : RAINFED                                                       
 IRRIGATION     : NOT IRRIGATED                                                 
 NITROGEN BAL.  : SOIL-N & N-UPTAKE SIMULATION; NO N-FIXATION                   
 N-FERTILIZER   :      161 kg/ha IN     5 APPLICATIONS                          
 RESIDUE/MANURE : INITIAL :     0 kg/ha ;       0 kg/ha IN     0 APPLICATIONS   
 ENVIRONM. OPT. : DAYL=    0.00  SRAD=    0.00  TMAX=    0.00  TMIN=    0.00    
                  RAIN=    0.00  CO2 =    0.00  DEW =    0.00  WIND=    0.00    
 SIMULATION OPT : WATER   :Y  NITROGEN:Y  N-FIX:N  PHOSPH :N  PESTS  :N         
                  PHOTO   :C  ET      :R  INFIL:S  HYDROL :R  SOM    :G         
                  CO2 372ppm  NSWIT   :1  EVAP :S  SOIL   :2  STEMP  :D         
 MANAGEMENT OPT : PLANTING:R  IRRIG   :N  FERT :D  RESIDUE:R  HARVEST:M         
                  WEATHER :M  TILLAGE :N                                        
                                                                                
*SUMMARY OF SOIL AND GENETIC INPUT PARAMETERS                                   
                                                                                
   SOIL LOWER UPPER   SAT  EXTR  INIT   ROOT   BULK     pH    NO3    NH4    ORG 
  DEPTH LIMIT LIMIT    SW    SW    SW   DIST   DENS                          C  
   cm   cm3/cm3    cm3/cm3    cm3/cm3         g/cm3         ugN/g  ugN/g     %  
------------------------------------------------------------------------------- 
  0-  5 0.215 0.331 0.341 0.116 0.331   1.00   1.68   6.70   0.00   0.00   0.75 
  5- 15 0.215 0.331 0.341 0.116 0.331   1.00   1.68   6.70   0.00   0.00   0.75 
 15- 25 0.215 0.331 0.341 0.116 0.331   1.00   1.68   6.70   0.00   0.00   0.75 
 25- 35 0.181 0.291 0.364 0.110 0.291   0.50   1.61   7.20   0.00   0.00   0.53 
 35- 45 0.181 0.291 0.364 0.110 0.291   0.50   1.61   7.20   0.00   0.00   0.53 
 45- 67 0.096 0.169 0.404 0.073 0.169   0.27   1.51   7.00   0.00   0.00   0.05 
 67- 90 0.096 0.169 0.404 0.073 0.169   0.27   1.51   7.00   0.00   0.00   0.05 
                                                                                
TOT- 90  13.3  21.7  34.0   8.4  21.7  <--cm   -  kg/ha-->    0.0    0.0  51964 
SOIL ALBEDO    : 0.09      EVAPORATION LIMIT : 6.00         MIN. FACTOR  : 1.00 
RUNOFF CURVE # :76.00      DRAINAGE RATE     : 0.60         FERT. FACTOR : 1.00 
                                                                                
 Maize      CULTIVAR :CI0001-P30F35             ECOTYPE :IB0001                 
 P1     : 200.00  P2     : 0.3000  P5     : 925.00                              
 G2     : 954.00  G3     :  7.000  PHINT  : 50.000                              


*SIMULATED CROP AND SOIL STATUS AT MAIN DEVELOPMENT STAGES

 RUN NO.     4     P04/17                  

        CROP GROWTH     BIOMASS         LEAF   CROP N     STRESS      STRESS                                           
   DATE  AGE STAGE        kg/ha    LAI   NUM  kg/ha  %   H2O  Nitr Phos1 Phos2  RSTG                                   
 ------  --- ----------   -----  -----  ----  ---  ---  ----  ----  ----  ----  ----                                   
 18 MAR    0 Start Sim        0   0.00   0.0    0  0.0  0.00  0.00  0.00  0.00     7
 17 APR    0 Sowing           0   0.00   0.0    0  0.0  0.00  0.00  0.00  0.00     8
 18 APR    1 Germinate        0   0.00   0.0    0  0.0  0.00  0.00  0.00  0.00     9
 23 APR    6 Emergence       25   0.00   2.0    1  4.4  0.00  0.01  0.00  0.00     1
  5 MAY   18 End Juveni      62   0.14   6.6    2  3.4  0.00  0.00  0.00  0.00     2
 12 MAY   25 Floral Ini     227   0.44   9.0    8  3.6  0.00  0.00  0.00  0.00     3
 18 JUN   62 75% Silkin    5262   2.87  18.8   98  1.9  0.06  0.01  0.00  0.00     4
 28 JUN   72 Beg Gr Fil    6182   2.14  18.8  102  1.6  0.70  0.00  0.00  0.00     5
 10 AUG  115 End Gr Fil    7318   0.37  18.8  102  1.4  0.84  0.00  0.00  0.00     6
 13 AUG  118 Maturity      7318   0.37  18.8  102  1.4  0.37  0.00  0.00  0.00    10
 13 AUG  118 Harvest       7318   0.37  18.8  102  1.4  0.00  0.00  0.00  0.00    10


*MAIN GROWTH AND DEVELOPMENT VARIABLES

@     VARIABLE                                         SIMULATED     MEASURED
      --------                                         ---------     --------
      Anthesis day (dap)                                      62          -99
      Physiological maturity day (dap)                       118          -99
      Yield at harvest maturity (kg [dm]/ha)                2344          -99
      Number at maturity (no/m2)                            1725          -99
      Unit wt at maturity (g [dm]/unit)                   0.1359          -99
      Number at maturity (no/unit)                         278.2          -99
      Tops weight at maturity (kg [dm]/ha)                  7318          -99
      By-product produced (stalk) at maturity (kg[dm]/ha    5021          -99
      Leaf area index, maximum                              2.87          -99
      Harvest index at maturity                            0.320          -99
      Grain N at maturity (kg/ha)                             44          -99
      Tops N at maturity (kg/ha)                             102          -99
      Stem N at maturity (kg/ha)                              58          -99
      Grain N at maturity (%)                                1.9          -99
      Tops weight at anthesis (kg [dm]/ha)                  5049          -99
      Tops N at anthesis (kg/ha)                              97          -99
      Leaf number per stem at maturity                     18.85          -99
      Emergence day (dap)                                      6          -99


*ENVIRONMENTAL AND STRESS FACTORS

 |-----Development Phase------|--------------------------------------Environment--------------------------------------|-----------------Stress-----------------|
                              |---------------Average--------------|-----Cumulative-----|--------Count of days--------|          (0=Min, 1=Max Stress)         |
                         Time  Temp  Temp  Temp Solar Photop                Evapo    Pot TMIN TMIN TMAX TMAX TMAX RAIN|----Water----|---Nitrogen--|-Phosphorus-|
                         Span   Max   Min  Mean   Rad  [day]    CO2   Rain  Trans     ET   <    <    >    >    >    >   Photo         Photo         Photo
                         days    邂    邂    邂 MJ/m2     hr    ppm     mm     mm     mm  0邂  2邂 30邂 32邂 34邂  0mm  synth Growth  synth Growth  synth Growth
----------------------------------------------------------------------------------------------------------------------------------------------------------------
 Emergence-End Juvenile    12  29.2  19.6  24.4  14.4  24.00  372.5   64.0   36.5   47.8    0    0    6    0    0    7  0.000  0.000  0.002  0.005  0.000  0.000
 End Juvenil-Floral Init    7  28.3  19.7  24.0  14.5  24.00  372.5    0.3    8.6   26.9    0    0    0    0    0    1  0.000  0.000  0.001  0.002  0.000  0.000
 Floral Init-End Lf Grow   37  30.0  19.1  24.6  15.2  24.00  372.7  110.9  118.2  138.5    0    0   21    6    0   17  0.033  0.058  0.005  0.013  0.000  0.000
 End Lf Grth-Beg Grn Fil   10  29.1  19.0  24.0  17.8  24.00  372.9    0.0   23.8   41.7    0    0    4    0    0    0  0.496  0.612  0.000  0.000  0.000  0.000
 Grain Filling Phase       43  30.8  18.5  24.6  17.9  24.00  373.0   45.4   45.8  195.2    0    0   29   12    2   10  0.817  0.863  0.000  0.000  0.000  0.000


 Planting to Harvest      118  30.0  19.0  24.5  16.3  24.00  372.8  236.6  249.4  489.5    0    0   65   19    2   38  0.353  0.389  0.002  0.005  0.000  0.000
----------------------------------------------------------------------------------------------------------------------------------------------------------------


*Resource Productivity
 Growing season length: 118 days 

 Precipitation during growing season       236.6 mm[rain]
   Dry Matter Productivity                  3.09 kg[DM]/m3[rain]          =   30.9 kg[DM]/ha per mm[rain]
   Yield Productivity                       0.99 kg[grain yield]/m3[rain] =    9.9 kg[yield]/ha per mm[rain]

 Evapotranspiration during growing season  249.4 mm[ET]
   Dry Matter Productivity                  2.93 kg[DM]/m3[ET]            =   29.3 kg[DM]/ha per mm[ET]
   Yield Productivity                       0.94 kg[grain yield]/m3[ET]   =    9.4 kg[yield]/ha per mm[ET]

 Transpiration during growing season       128.0 mm[EP]
   Dry Matter Productivity                  5.71 kg[DM]/m3[EP]            =   57.1 kg[DM]/ha per mm[EP]
   Yield Productivity                       1.83 kg[grain yield]/m3[EP]   =   18.3 kg[yield]/ha per mm[EP]

 N applied during growing season            161. kg[N applied]/ha
   Dry Matter Productivity                  45.5 kg[DM]/kg[N applied]
   Yield Productivity                       14.6 kg[yield]/kg[N applied]

 N uptake during growing season              114 kg[N uptake]/ha
   Dry Matter Productivity                  64.2 kg[DM]/kg[N uptake]
   Yield Productivity                       20.6 kg[yield]/kg[N uptake]

--------------------------------------------------------------------------------------------------------------

                     Maize YIELD :     2344 kg/ha    [Dry weight] 

**************************************************************************************************************

*DSSAT Cropping System Model Ver. 4.6.1.000 -release      OCT 24, 2017; 10:44:35
                                                                                
*RUN   5        : P04/22                    MZCER046 ANBU2002    5              
 MODEL          : MZCER046 - Maize                                              
 EXPERIMENT     : ANBU2002 MZ  Analisis a침os de bajo rendimiento Buga          
 DATA PATH      : C:\DSSAT46\maize\                                             
 TREATMENT  5   : P04/22                    MZCER046                            
                                                                                
                                                                                
 CROP           : Maize            CULTIVAR : P30F35           ECOTYPE :IB0001  
 STARTING DATE  : MAR 23 2002                                                   
 PLANTING DATE  : APR 22 2002        PLANTS/m2 :  6.2     ROW SPACING :  80.cm  
 WEATHER        : CUNI   2002                                                   
 SOIL           : CCBUGA2017     TEXTURE : CL    -   Suelo Buga MADR Fase I     
 SOIL INITIAL C : DEPTH: 90cm EXTR. H2O: 83.9mm  NO3:  0.0kg/ha  NH4:  0.0kg/ha 
 WATER BALANCE  : RAINFED                                                       
 IRRIGATION     : NOT IRRIGATED                                                 
 NITROGEN BAL.  : SOIL-N & N-UPTAKE SIMULATION; NO N-FIXATION                   
 N-FERTILIZER   :      161 kg/ha IN     5 APPLICATIONS                          
 RESIDUE/MANURE : INITIAL :     0 kg/ha ;       0 kg/ha IN     0 APPLICATIONS   
 ENVIRONM. OPT. : DAYL=    0.00  SRAD=    0.00  TMAX=    0.00  TMIN=    0.00    
                  RAIN=    0.00  CO2 =    0.00  DEW =    0.00  WIND=    0.00    
 SIMULATION OPT : WATER   :Y  NITROGEN:Y  N-FIX:N  PHOSPH :N  PESTS  :N         
                  PHOTO   :C  ET      :R  INFIL:S  HYDROL :R  SOM    :G         
                  CO2 372ppm  NSWIT   :1  EVAP :S  SOIL   :2  STEMP  :D         
 MANAGEMENT OPT : PLANTING:R  IRRIG   :N  FERT :D  RESIDUE:R  HARVEST:M         
                  WEATHER :M  TILLAGE :N                                        
                                                                                
*SUMMARY OF SOIL AND GENETIC INPUT PARAMETERS                                   
                                                                                
   SOIL LOWER UPPER   SAT  EXTR  INIT   ROOT   BULK     pH    NO3    NH4    ORG 
  DEPTH LIMIT LIMIT    SW    SW    SW   DIST   DENS                          C  
   cm   cm3/cm3    cm3/cm3    cm3/cm3         g/cm3         ugN/g  ugN/g     %  
------------------------------------------------------------------------------- 
  0-  5 0.215 0.331 0.341 0.116 0.331   1.00   1.68   6.70   0.00   0.00   0.75 
  5- 15 0.215 0.331 0.341 0.116 0.331   1.00   1.68   6.70   0.00   0.00   0.75 
 15- 25 0.215 0.331 0.341 0.116 0.331   1.00   1.68   6.70   0.00   0.00   0.75 
 25- 35 0.181 0.291 0.364 0.110 0.291   0.50   1.61   7.20   0.00   0.00   0.53 
 35- 45 0.181 0.291 0.364 0.110 0.291   0.50   1.61   7.20   0.00   0.00   0.53 
 45- 67 0.096 0.169 0.404 0.073 0.169   0.27   1.51   7.00   0.00   0.00   0.05 
 67- 90 0.096 0.169 0.404 0.073 0.169   0.27   1.51   7.00   0.00   0.00   0.05 
                                                                                
TOT- 90  13.3  21.7  34.0   8.4  21.7  <--cm   -  kg/ha-->    0.0    0.0  51964 
SOIL ALBEDO    : 0.09      EVAPORATION LIMIT : 6.00         MIN. FACTOR  : 1.00 
RUNOFF CURVE # :76.00      DRAINAGE RATE     : 0.60         FERT. FACTOR : 1.00 
                                                                                
 Maize      CULTIVAR :CI0001-P30F35             ECOTYPE :IB0001                 
 P1     : 200.00  P2     : 0.3000  P5     : 925.00                              
 G2     : 954.00  G3     :  7.000  PHINT  : 50.000                              


*SIMULATED CROP AND SOIL STATUS AT MAIN DEVELOPMENT STAGES

 RUN NO.     5     P04/22                  

        CROP GROWTH     BIOMASS         LEAF   CROP N     STRESS      STRESS                                           
   DATE  AGE STAGE        kg/ha    LAI   NUM  kg/ha  %   H2O  Nitr Phos1 Phos2  RSTG                                   
 ------  --- ----------   -----  -----  ----  ---  ---  ----  ----  ----  ----  ----                                   
 23 MAR    0 Start Sim        0   0.00   0.0    0  0.0  0.00  0.00  0.00  0.00     7
 22 APR    0 Sowing           0   0.00   0.0    0  0.0  0.00  0.00  0.00  0.00     8
 23 APR    1 Germinate        0   0.00   0.0    0  0.0  0.00  0.00  0.00  0.00     9
 28 APR    6 Emergence       25   0.00   2.0    1  4.4  0.00  0.01  0.00  0.00     1
 10 MAY   18 End Juveni      72   0.16   6.6    2  3.4  0.00  0.00  0.00  0.00     2
 17 MAY   25 Floral Ini     239   0.45   8.9    9  3.6  0.00  0.00  0.00  0.00     3
 22 JUN   61 75% Silkin    5401   2.89  18.6  104  1.9  0.03  0.00  0.00  0.00     4
  3 JUL   72 Beg Gr Fil    6527   2.22  18.6  106  1.6  0.60  0.00  0.00  0.00     5
 14 AUG  114 End Gr Fil    7883   0.43  18.6  106  1.3  0.83  0.00  0.00  0.00     6
 17 AUG  117 Maturity      7883   0.43  18.6  106  1.3  0.85  0.00  0.00  0.00    10
 17 AUG  117 Harvest       7883   0.43  18.6  106  1.3  0.00  0.00  0.00  0.00    10


*MAIN GROWTH AND DEVELOPMENT VARIABLES

@     VARIABLE                                         SIMULATED     MEASURED
      --------                                         ---------     --------
      Anthesis day (dap)                                      61          -99
      Physiological maturity day (dap)                       117          -99
      Yield at harvest maturity (kg [dm]/ha)                2720          -99
      Number at maturity (no/m2)                            1836          -99
      Unit wt at maturity (g [dm]/unit)                   0.1482          -99
      Number at maturity (no/unit)                         296.1          -99
      Tops weight at maturity (kg [dm]/ha)                  7883          -99
      By-product produced (stalk) at maturity (kg[dm]/ha    5212          -99
      Leaf area index, maximum                              3.01          -99
      Harvest index at maturity                            0.345          -99
      Grain N at maturity (kg/ha)                             51          -99
      Tops N at maturity (kg/ha)                             106          -99
      Stem N at maturity (kg/ha)                              55          -99
      Grain N at maturity (%)                                1.9          -99
      Tops weight at anthesis (kg [dm]/ha)                  5160          -99
      Tops N at anthesis (kg/ha)                             103          -99
      Leaf number per stem at maturity                     18.64          -99
      Emergence day (dap)                                      6          -99


*ENVIRONMENTAL AND STRESS FACTORS

 |-----Development Phase------|--------------------------------------Environment--------------------------------------|-----------------Stress-----------------|
                              |---------------Average--------------|-----Cumulative-----|--------Count of days--------|          (0=Min, 1=Max Stress)         |
                         Time  Temp  Temp  Temp Solar Photop                Evapo    Pot TMIN TMIN TMAX TMAX TMAX RAIN|----Water----|---Nitrogen--|-Phosphorus-|
                         Span   Max   Min  Mean   Rad  [day]    CO2   Rain  Trans     ET   <    <    >    >    >    >   Photo         Photo         Photo
                         days    邂    邂    邂 MJ/m2     hr    ppm     mm     mm     mm  0邂  2邂 30邂 32邂 34邂  0mm  synth Growth  synth Growth  synth Growth
----------------------------------------------------------------------------------------------------------------------------------------------------------------
 Emergence-End Juvenile    12  29.1  19.4  24.2  15.2  24.00  372.5    7.0   25.0   49.9    0    0    4    0    0    2  0.000  0.000  0.002  0.005  0.000  0.000
 End Juvenil-Floral Init    7  27.7  20.6  24.2  13.6  24.00  372.6    1.6    7.5   25.1    0    0    0    0    0    2  0.000  0.000  0.001  0.001  0.000  0.000
 Floral Init-End Lf Grow   36  30.2  18.9  24.6  15.8  24.00  372.8  109.6  126.1  140.0    0    0   23    6    0   16  0.008  0.028  0.000  0.000  0.000  0.000
 End Lf Grth-Beg Grn Fil   11  29.3  19.2  24.3  16.9  24.00  372.9    7.0   27.7   43.8    0    0    4    1    0    1  0.384  0.528  0.000  0.000  0.000  0.000
 Grain Filling Phase       42  31.1  18.3  24.7  18.4  24.00  373.1   38.4   48.9  196.5    0    0   31   13    3    9  0.783  0.830  0.000  0.000  0.000  0.000


 Planting to Harvest      117  30.1  18.9  24.5  16.6  24.00  372.8  220.6  257.7  492.9    0    0   66   21    3   35  0.339  0.377  0.000  0.001  0.000  0.000
----------------------------------------------------------------------------------------------------------------------------------------------------------------


*Resource Productivity
 Growing season length: 117 days 

 Precipitation during growing season       220.6 mm[rain]
   Dry Matter Productivity                  3.57 kg[DM]/m3[rain]          =   35.7 kg[DM]/ha per mm[rain]
   Yield Productivity                       1.23 kg[grain yield]/m3[rain] =   12.3 kg[yield]/ha per mm[rain]

 Evapotranspiration during growing season  257.7 mm[ET]
   Dry Matter Productivity                  3.06 kg[DM]/m3[ET]            =   30.6 kg[DM]/ha per mm[ET]
   Yield Productivity                       1.06 kg[grain yield]/m3[ET]   =   10.6 kg[yield]/ha per mm[ET]

 Transpiration during growing season       136.1 mm[EP]
   Dry Matter Productivity                  5.79 kg[DM]/m3[EP]            =   57.9 kg[DM]/ha per mm[EP]
   Yield Productivity                       2.00 kg[grain yield]/m3[EP]   =   20.0 kg[yield]/ha per mm[EP]

 N applied during growing season            161. kg[N applied]/ha
   Dry Matter Productivity                  49.0 kg[DM]/kg[N applied]
   Yield Productivity                       16.9 kg[yield]/kg[N applied]

 N uptake during growing season              120 kg[N uptake]/ha
   Dry Matter Productivity                  65.7 kg[DM]/kg[N uptake]
   Yield Productivity                       22.7 kg[yield]/kg[N uptake]

--------------------------------------------------------------------------------------------------------------

                     Maize YIELD :     2720 kg/ha    [Dry weight] 

**************************************************************************************************************

*DSSAT Cropping System Model Ver. 4.6.1.000 -release      OCT 24, 2017; 10:44:35
                                                                                
*RUN   6        : P04/27                    MZCER046 ANBU2002    6              
 MODEL          : MZCER046 - Maize                                              
 EXPERIMENT     : ANBU2002 MZ  Analisis a침os de bajo rendimiento Buga          
 DATA PATH      : C:\DSSAT46\maize\                                             
 TREATMENT  6   : P04/27                    MZCER046                            
                                                                                
                                                                                
 CROP           : Maize            CULTIVAR : P30F35           ECOTYPE :IB0001  
 STARTING DATE  : MAR 28 2002                                                   
 PLANTING DATE  : APR 27 2002        PLANTS/m2 :  6.2     ROW SPACING :  80.cm  
 WEATHER        : CUNI   2002                                                   
 SOIL           : CCBUGA2017     TEXTURE : CL    -   Suelo Buga MADR Fase I     
 SOIL INITIAL C : DEPTH: 90cm EXTR. H2O: 83.9mm  NO3:  0.0kg/ha  NH4:  0.0kg/ha 
 WATER BALANCE  : RAINFED                                                       
 IRRIGATION     : NOT IRRIGATED                                                 
 NITROGEN BAL.  : SOIL-N & N-UPTAKE SIMULATION; NO N-FIXATION                   
 N-FERTILIZER   :      161 kg/ha IN     5 APPLICATIONS                          
 RESIDUE/MANURE : INITIAL :     0 kg/ha ;       0 kg/ha IN     0 APPLICATIONS   
 ENVIRONM. OPT. : DAYL=    0.00  SRAD=    0.00  TMAX=    0.00  TMIN=    0.00    
                  RAIN=    0.00  CO2 =    0.00  DEW =    0.00  WIND=    0.00    
 SIMULATION OPT : WATER   :Y  NITROGEN:Y  N-FIX:N  PHOSPH :N  PESTS  :N         
                  PHOTO   :C  ET      :R  INFIL:S  HYDROL :R  SOM    :G         
                  CO2 372ppm  NSWIT   :1  EVAP :S  SOIL   :2  STEMP  :D         
 MANAGEMENT OPT : PLANTING:R  IRRIG   :N  FERT :D  RESIDUE:R  HARVEST:M         
                  WEATHER :M  TILLAGE :N                                        
                                                                                
*SUMMARY OF SOIL AND GENETIC INPUT PARAMETERS                                   
                                                                                
   SOIL LOWER UPPER   SAT  EXTR  INIT   ROOT   BULK     pH    NO3    NH4    ORG 
  DEPTH LIMIT LIMIT    SW    SW    SW   DIST   DENS                          C  
   cm   cm3/cm3    cm3/cm3    cm3/cm3         g/cm3         ugN/g  ugN/g     %  
------------------------------------------------------------------------------- 
  0-  5 0.215 0.331 0.341 0.116 0.331   1.00   1.68   6.70   0.00   0.00   0.75 
  5- 15 0.215 0.331 0.341 0.116 0.331   1.00   1.68   6.70   0.00   0.00   0.75 
 15- 25 0.215 0.331 0.341 0.116 0.331   1.00   1.68   6.70   0.00   0.00   0.75 
 25- 35 0.181 0.291 0.364 0.110 0.291   0.50   1.61   7.20   0.00   0.00   0.53 
 35- 45 0.181 0.291 0.364 0.110 0.291   0.50   1.61   7.20   0.00   0.00   0.53 
 45- 67 0.096 0.169 0.404 0.073 0.169   0.27   1.51   7.00   0.00   0.00   0.05 
 67- 90 0.096 0.169 0.404 0.073 0.169   0.27   1.51   7.00   0.00   0.00   0.05 
                                                                                
TOT- 90  13.3  21.7  34.0   8.4  21.7  <--cm   -  kg/ha-->    0.0    0.0  51964 
SOIL ALBEDO    : 0.09      EVAPORATION LIMIT : 6.00         MIN. FACTOR  : 1.00 
RUNOFF CURVE # :76.00      DRAINAGE RATE     : 0.60         FERT. FACTOR : 1.00 
                                                                                
 Maize      CULTIVAR :CI0001-P30F35             ECOTYPE :IB0001                 
 P1     : 200.00  P2     : 0.3000  P5     : 925.00                              
 G2     : 954.00  G3     :  7.000  PHINT  : 50.000                              


*SIMULATED CROP AND SOIL STATUS AT MAIN DEVELOPMENT STAGES

 RUN NO.     6     P04/27                  

        CROP GROWTH     BIOMASS         LEAF   CROP N     STRESS      STRESS                                           
   DATE  AGE STAGE        kg/ha    LAI   NUM  kg/ha  %   H2O  Nitr Phos1 Phos2  RSTG                                   
 ------  --- ----------   -----  -----  ----  ---  ---  ----  ----  ----  ----  ----                                   
 28 MAR    0 Start Sim        0   0.00   0.0    0  0.0  0.00  0.00  0.00  0.00     7
 27 APR    0 Sowing           0   0.00   0.0    0  0.0  0.00  0.00  0.00  0.00     8
 28 APR    1 Germinate        0   0.00   0.0    0  0.0  0.00  0.00  0.00  0.00     9
  3 MAY    6 Emergence       25   0.00   2.0    1  4.4  0.00  0.01  0.00  0.00     1
 15 MAY   18 End Juveni      72   0.16   6.6    2  3.4  0.00  0.00  0.00  0.00     2
 22 MAY   25 Floral Ini     237   0.45   8.9    9  3.6  0.01  0.00  0.00  0.00     3
 28 JUN   62 75% Silkin    5173   2.66  18.6  103  2.0  0.11  0.00  0.00  0.00     4
  8 JUL   72 Beg Gr Fil    5751   1.95  18.6  103  1.8  0.71  0.00  0.00  0.00     5
 19 AUG  114 End Gr Fil    7082   0.39  18.6  103  1.5  0.82  0.00  0.00  0.00     6
 22 AUG  117 Maturity      7082   0.39  18.6  103  1.5  0.95  0.00  0.00  0.00    10
 22 AUG  117 Harvest       7082   0.39  18.6  103  1.5  0.00  0.00  0.00  0.00    10


*MAIN GROWTH AND DEVELOPMENT VARIABLES

@     VARIABLE                                         SIMULATED     MEASURED
      --------                                         ---------     --------
      Anthesis day (dap)                                      62          -99
      Physiological maturity day (dap)                       117          -99
      Yield at harvest maturity (kg [dm]/ha)                2459          -99
      Number at maturity (no/m2)                            1452          -99
      Unit wt at maturity (g [dm]/unit)                   0.1694          -99
      Number at maturity (no/unit)                         234.2          -99
      Tops weight at maturity (kg [dm]/ha)                  7082          -99
      By-product produced (stalk) at maturity (kg[dm]/ha    4669          -99
      Leaf area index, maximum                              2.75          -99
      Harvest index at maturity                            0.347          -99
      Grain N at maturity (kg/ha)                             46          -99
      Tops N at maturity (kg/ha)                             103          -99
      Stem N at maturity (kg/ha)                              58          -99
      Grain N at maturity (%)                                1.9          -99
      Tops weight at anthesis (kg [dm]/ha)                  4893          -99
      Tops N at anthesis (kg/ha)                              98          -99
      Leaf number per stem at maturity                     18.63          -99
      Emergence day (dap)                                      6          -99


*ENVIRONMENTAL AND STRESS FACTORS

 |-----Development Phase------|--------------------------------------Environment--------------------------------------|-----------------Stress-----------------|
                              |---------------Average--------------|-----Cumulative-----|--------Count of days--------|          (0=Min, 1=Max Stress)         |
                         Time  Temp  Temp  Temp Solar Photop                Evapo    Pot TMIN TMIN TMAX TMAX TMAX RAIN|----Water----|---Nitrogen--|-Phosphorus-|
                         Span   Max   Min  Mean   Rad  [day]    CO2   Rain  Trans     ET   <    <    >    >    >    >   Photo         Photo         Photo
                         days    邂    邂    邂 MJ/m2     hr    ppm     mm     mm     mm  0邂  2邂 30邂 32邂 34邂  0mm  synth Growth  synth Growth  synth Growth
----------------------------------------------------------------------------------------------------------------------------------------------------------------
 Emergence-End Juvenile    12  28.1  20.0  24.0  14.1  24.00  372.5    0.3    9.7   45.8    0    0    1    0    0    1  0.000  0.000  0.002  0.005  0.000  0.000
 End Juvenil-Floral Init    7  28.9  20.1  24.5  13.5  24.00  372.7   22.3   10.4   25.3    0    0    2    0    0    4  0.000  0.006  0.001  0.001  0.000  0.000
 Floral Init-End Lf Grow   37  30.2  18.8  24.5  16.4  24.00  372.8   88.6  129.6  149.4    0    0   23    6    0   13  0.055  0.100  0.000  0.000  0.000  0.000
 End Lf Grth-Beg Grn Fil   10  29.6  19.3  24.4  17.3  24.00  372.9   10.8   21.4   41.2    0    0    5    1    0    3  0.529  0.652  0.000  0.000  0.000  0.000
 Grain Filling Phase       42  31.0  18.2  24.6  18.6  24.00  373.1   34.6   48.8  199.1    0    0   30   14    3    7  0.771  0.824  0.000  0.000  0.000  0.000


 Planting to Harvest      117  30.2  18.8  24.5  16.8  24.00  372.9  170.6  242.7  500.2    0    0   67   24    4   31  0.361  0.406  0.000  0.001  0.000  0.000
----------------------------------------------------------------------------------------------------------------------------------------------------------------


*Resource Productivity
 Growing season length: 117 days 

 Precipitation during growing season       170.6 mm[rain]
   Dry Matter Productivity                  4.15 kg[DM]/m3[rain]          =   41.5 kg[DM]/ha per mm[rain]
   Yield Productivity                       1.44 kg[grain yield]/m3[rain] =   14.4 kg[yield]/ha per mm[rain]

 Evapotranspiration during growing season  242.7 mm[ET]
   Dry Matter Productivity                  2.92 kg[DM]/m3[ET]            =   29.2 kg[DM]/ha per mm[ET]
   Yield Productivity                       1.01 kg[grain yield]/m3[ET]   =   10.1 kg[yield]/ha per mm[ET]

 Transpiration during growing season       126.4 mm[EP]
   Dry Matter Productivity                  5.60 kg[DM]/m3[EP]            =   56.0 kg[DM]/ha per mm[EP]
   Yield Productivity                       1.95 kg[grain yield]/m3[EP]   =   19.5 kg[yield]/ha per mm[EP]

 N applied during growing season            161. kg[N applied]/ha
   Dry Matter Productivity                  44.0 kg[DM]/kg[N applied]
   Yield Productivity                       15.3 kg[yield]/kg[N applied]

 N uptake during growing season              118 kg[N uptake]/ha
   Dry Matter Productivity                  60.0 kg[DM]/kg[N uptake]
   Yield Productivity                       20.8 kg[yield]/kg[N uptake]

--------------------------------------------------------------------------------------------------------------

                     Maize YIELD :     2459 kg/ha    [Dry weight] 

**************************************************************************************************************

*DSSAT Cropping System Model Ver. 4.6.1.000 -release      OCT 24, 2017; 10:44:35
                                                                                
*RUN   7        : P05/02                    MZCER046 ANBU2002    7              
 MODEL          : MZCER046 - Maize                                              
 EXPERIMENT     : ANBU2002 MZ  Analisis a침os de bajo rendimiento Buga          
 DATA PATH      : C:\DSSAT46\maize\                                             
 TREATMENT  7   : P05/02                    MZCER046                            
                                                                                
                                                                                
 CROP           : Maize            CULTIVAR : P30F35           ECOTYPE :IB0001  
 STARTING DATE  : APR  2 2002                                                   
 PLANTING DATE  : MAY  2 2002        PLANTS/m2 :  6.2     ROW SPACING :  80.cm  
 WEATHER        : CUNI   2002                                                   
 SOIL           : CCBUGA2017     TEXTURE : CL    -   Suelo Buga MADR Fase I     
 SOIL INITIAL C : DEPTH: 90cm EXTR. H2O: 83.9mm  NO3:  0.0kg/ha  NH4:  0.0kg/ha 
 WATER BALANCE  : RAINFED                                                       
 IRRIGATION     : NOT IRRIGATED                                                 
 NITROGEN BAL.  : SOIL-N & N-UPTAKE SIMULATION; NO N-FIXATION                   
 N-FERTILIZER   :      161 kg/ha IN     5 APPLICATIONS                          
 RESIDUE/MANURE : INITIAL :     0 kg/ha ;       0 kg/ha IN     0 APPLICATIONS   
 ENVIRONM. OPT. : DAYL=    0.00  SRAD=    0.00  TMAX=    0.00  TMIN=    0.00    
                  RAIN=    0.00  CO2 =    0.00  DEW =    0.00  WIND=    0.00    
 SIMULATION OPT : WATER   :Y  NITROGEN:Y  N-FIX:N  PHOSPH :N  PESTS  :N         
                  PHOTO   :C  ET      :R  INFIL:S  HYDROL :R  SOM    :G         
                  CO2 372ppm  NSWIT   :1  EVAP :S  SOIL   :2  STEMP  :D         
 MANAGEMENT OPT : PLANTING:R  IRRIG   :N  FERT :D  RESIDUE:R  HARVEST:M         
                  WEATHER :M  TILLAGE :N                                        
                                                                                
*SUMMARY OF SOIL AND GENETIC INPUT PARAMETERS                                   
                                                                                
   SOIL LOWER UPPER   SAT  EXTR  INIT   ROOT   BULK     pH    NO3    NH4    ORG 
  DEPTH LIMIT LIMIT    SW    SW    SW   DIST   DENS                          C  
   cm   cm3/cm3    cm3/cm3    cm3/cm3         g/cm3         ugN/g  ugN/g     %  
------------------------------------------------------------------------------- 
  0-  5 0.215 0.331 0.341 0.116 0.331   1.00   1.68   6.70   0.00   0.00   0.75 
  5- 15 0.215 0.331 0.341 0.116 0.331   1.00   1.68   6.70   0.00   0.00   0.75 
 15- 25 0.215 0.331 0.341 0.116 0.331   1.00   1.68   6.70   0.00   0.00   0.75 
 25- 35 0.181 0.291 0.364 0.110 0.291   0.50   1.61   7.20   0.00   0.00   0.53 
 35- 45 0.181 0.291 0.364 0.110 0.291   0.50   1.61   7.20   0.00   0.00   0.53 
 45- 67 0.096 0.169 0.404 0.073 0.169   0.27   1.51   7.00   0.00   0.00   0.05 
 67- 90 0.096 0.169 0.404 0.073 0.169   0.27   1.51   7.00   0.00   0.00   0.05 
                                                                                
TOT- 90  13.3  21.7  34.0   8.4  21.7  <--cm   -  kg/ha-->    0.0    0.0  51964 
SOIL ALBEDO    : 0.09      EVAPORATION LIMIT : 6.00         MIN. FACTOR  : 1.00 
RUNOFF CURVE # :76.00      DRAINAGE RATE     : 0.60         FERT. FACTOR : 1.00 
                                                                                
 Maize      CULTIVAR :CI0001-P30F35             ECOTYPE :IB0001                 
 P1     : 200.00  P2     : 0.3000  P5     : 925.00                              
 G2     : 954.00  G3     :  7.000  PHINT  : 50.000                              


*SIMULATED CROP AND SOIL STATUS AT MAIN DEVELOPMENT STAGES

 RUN NO.     7     P05/02                  

        CROP GROWTH     BIOMASS         LEAF   CROP N     STRESS      STRESS                                           
   DATE  AGE STAGE        kg/ha    LAI   NUM  kg/ha  %   H2O  Nitr Phos1 Phos2  RSTG                                   
 ------  --- ----------   -----  -----  ----  ---  ---  ----  ----  ----  ----  ----                                   
  2 APR    0 Start Sim        0   0.00   0.0    0  0.0  0.00  0.00  0.00  0.00     7
  2 MAY    0 Sowing           0   0.00   0.0    0  0.0  0.00  0.00  0.00  0.00     8
  3 MAY    1 Germinate        0   0.00   0.0    0  0.0  0.00  0.00  0.00  0.00     9
  8 MAY    6 Emergence       25   0.00   2.0    1  4.4  0.00  0.01  0.00  0.00     1
 20 MAY   18 End Juveni      74   0.16   6.6    2  3.3  0.01  0.00  0.00  0.00     2
 27 MAY   25 Floral Ini     187   0.37   9.0    7  3.6  0.00  0.00  0.00  0.00     3
  3 JUL   62 75% Silkin    3956   1.86  19.0   82  2.1  0.23  0.00  0.00  0.00     4
 13 JUL   72 Beg Gr Fil    4490   1.38  19.0   84  1.9  0.73  0.00  0.00  0.00     5
 24 AUG  114 End Gr Fil    5731   0.29  19.0   84  1.5  0.80  0.00  0.00  0.00     6
 27 AUG  117 Maturity      5731   0.29  19.0   84  1.5  0.85  0.00  0.00  0.00    10
 27 AUG  117 Harvest       5731   0.29  19.0   84  1.5  0.00  0.00  0.00  0.00    10


*MAIN GROWTH AND DEVELOPMENT VARIABLES

@     VARIABLE                                         SIMULATED     MEASURED
      --------                                         ---------     --------
      Anthesis day (dap)                                      62          -99
      Physiological maturity day (dap)                       117          -99
      Yield at harvest maturity (kg [dm]/ha)                2161          -99
      Number at maturity (no/m2)                            1243          -99
      Unit wt at maturity (g [dm]/unit)                   0.1739          -99
      Number at maturity (no/unit)                         200.5          -99
      Tops weight at maturity (kg [dm]/ha)                  5731          -99
      By-product produced (stalk) at maturity (kg[dm]/ha    3610          -99
      Leaf area index, maximum                              2.33          -99
      Harvest index at maturity                            0.377          -99
      Grain N at maturity (kg/ha)                             40          -99
      Tops N at maturity (kg/ha)                              84          -99
      Stem N at maturity (kg/ha)                              44          -99
      Grain N at maturity (%)                                1.9          -99
      Tops weight at anthesis (kg [dm]/ha)                  3795          -99
      Tops N at anthesis (kg/ha)                              81          -99
      Leaf number per stem at maturity                     19.00          -99
      Emergence day (dap)                                      6          -99


*ENVIRONMENTAL AND STRESS FACTORS

 |-----Development Phase------|--------------------------------------Environment--------------------------------------|-----------------Stress-----------------|
                              |---------------Average--------------|-----Cumulative-----|--------Count of days--------|          (0=Min, 1=Max Stress)         |
                         Time  Temp  Temp  Temp Solar Photop                Evapo    Pot TMIN TMIN TMAX TMAX TMAX RAIN|----Water----|---Nitrogen--|-Phosphorus-|
                         Span   Max   Min  Mean   Rad  [day]    CO2   Rain  Trans     ET   <    <    >    >    >    >   Photo         Photo         Photo
                         days    邂    邂    邂 MJ/m2     hr    ppm     mm     mm     mm  0邂  2邂 30邂 32邂 34邂  0mm  synth Growth  synth Growth  synth Growth
----------------------------------------------------------------------------------------------------------------------------------------------------------------
 Emergence-End Juvenile    12  28.2  20.1  24.2  13.5  24.00  372.6    8.6    8.7   43.8    0    0    1    0    0    3  0.000  0.000  0.002  0.006  0.000  0.000
 End Juvenil-Floral Init    7  30.4  19.1  24.7  15.1  24.00  372.7   32.2   21.3   28.8    0    0    4    2    0    4  0.000  0.017  0.000  0.001  0.000  0.000
 Floral Init-End Lf Grow   37  30.1  18.9  24.5  16.5  24.00  372.8   77.4  111.3  151.9    0    0   22    5    0   12  0.159  0.218  0.000  0.000  0.000  0.000
 End Lf Grth-Beg Grn Fil   10  30.2  18.9  24.6  17.2  24.00  372.9    6.6   20.0   42.1    0    0    6    1    0    4  0.548  0.699  0.000  0.000  0.000  0.000
 Grain Filling Phase       42  31.2  18.2  24.7  18.7  24.00  373.2   31.8   46.3  203.4    0    0   31   16    4    5  0.743  0.804  0.000  0.000  0.000  0.000


 Planting to Harvest      117  30.3  18.8  24.5  17.0  24.00  372.9  164.1  215.7  510.4    0    0   68   24    4   31  0.385  0.441  0.000  0.001  0.000  0.000
----------------------------------------------------------------------------------------------------------------------------------------------------------------


*Resource Productivity
 Growing season length: 117 days 

 Precipitation during growing season       164.1 mm[rain]
   Dry Matter Productivity                  3.49 kg[DM]/m3[rain]          =   34.9 kg[DM]/ha per mm[rain]
   Yield Productivity                       1.32 kg[grain yield]/m3[rain] =   13.2 kg[yield]/ha per mm[rain]

 Evapotranspiration during growing season  215.7 mm[ET]
   Dry Matter Productivity                  2.66 kg[DM]/m3[ET]            =   26.6 kg[DM]/ha per mm[ET]
   Yield Productivity                       1.00 kg[grain yield]/m3[ET]   =   10.0 kg[yield]/ha per mm[ET]

 Transpiration during growing season       107.1 mm[EP]
   Dry Matter Productivity                  5.35 kg[DM]/m3[EP]            =   53.5 kg[DM]/ha per mm[EP]
   Yield Productivity                       2.02 kg[grain yield]/m3[EP]   =   20.2 kg[yield]/ha per mm[EP]

 N applied during growing season            161. kg[N applied]/ha
   Dry Matter Productivity                  35.6 kg[DM]/kg[N applied]
   Yield Productivity                       13.4 kg[yield]/kg[N applied]

 N uptake during growing season               96 kg[N uptake]/ha
   Dry Matter Productivity                  59.7 kg[DM]/kg[N uptake]
   Yield Productivity                       22.5 kg[yield]/kg[N uptake]

--------------------------------------------------------------------------------------------------------------

                     Maize YIELD :     2161 kg/ha    [Dry weight] 

**************************************************************************************************************

*DSSAT Cropping System Model Ver. 4.6.1.000 -release      OCT 24, 2017; 10:44:36
                                                                                
*RUN   8        : P05/07                    MZCER046 ANBU2002    8              
 MODEL          : MZCER046 - Maize                                              
 EXPERIMENT     : ANBU2002 MZ  Analisis a침os de bajo rendimiento Buga          
 DATA PATH      : C:\DSSAT46\maize\                                             
 TREATMENT  8   : P05/07                    MZCER046                            
                                                                                
                                                                                
 CROP           : Maize            CULTIVAR : P30F35           ECOTYPE :IB0001  
 STARTING DATE  : APR  7 2002                                                   
 PLANTING DATE  : MAY  7 2002        PLANTS/m2 :  6.2     ROW SPACING :  80.cm  
 WEATHER        : CUNI   2002                                                   
 SOIL           : CCBUGA2017     TEXTURE : CL    -   Suelo Buga MADR Fase I     
 SOIL INITIAL C : DEPTH: 90cm EXTR. H2O: 83.9mm  NO3:  0.0kg/ha  NH4:  0.0kg/ha 
 WATER BALANCE  : RAINFED                                                       
 IRRIGATION     : NOT IRRIGATED                                                 
 NITROGEN BAL.  : SOIL-N & N-UPTAKE SIMULATION; NO N-FIXATION                   
 N-FERTILIZER   :      161 kg/ha IN     5 APPLICATIONS                          
 RESIDUE/MANURE : INITIAL :     0 kg/ha ;       0 kg/ha IN     0 APPLICATIONS   
 ENVIRONM. OPT. : DAYL=    0.00  SRAD=    0.00  TMAX=    0.00  TMIN=    0.00    
                  RAIN=    0.00  CO2 =    0.00  DEW =    0.00  WIND=    0.00    
 SIMULATION OPT : WATER   :Y  NITROGEN:Y  N-FIX:N  PHOSPH :N  PESTS  :N         
                  PHOTO   :C  ET      :R  INFIL:S  HYDROL :R  SOM    :G         
                  CO2 372ppm  NSWIT   :1  EVAP :S  SOIL   :2  STEMP  :D         
 MANAGEMENT OPT : PLANTING:R  IRRIG   :N  FERT :D  RESIDUE:R  HARVEST:M         
                  WEATHER :M  TILLAGE :N                                        
                                                                                
*SUMMARY OF SOIL AND GENETIC INPUT PARAMETERS                                   
                                                                                
   SOIL LOWER UPPER   SAT  EXTR  INIT   ROOT   BULK     pH    NO3    NH4    ORG 
  DEPTH LIMIT LIMIT    SW    SW    SW   DIST   DENS                          C  
   cm   cm3/cm3    cm3/cm3    cm3/cm3         g/cm3         ugN/g  ugN/g     %  
------------------------------------------------------------------------------- 
  0-  5 0.215 0.331 0.341 0.116 0.331   1.00   1.68   6.70   0.00   0.00   0.75 
  5- 15 0.215 0.331 0.341 0.116 0.331   1.00   1.68   6.70   0.00   0.00   0.75 
 15- 25 0.215 0.331 0.341 0.116 0.331   1.00   1.68   6.70   0.00   0.00   0.75 
 25- 35 0.181 0.291 0.364 0.110 0.291   0.50   1.61   7.20   0.00   0.00   0.53 
 35- 45 0.181 0.291 0.364 0.110 0.291   0.50   1.61   7.20   0.00   0.00   0.53 
 45- 67 0.096 0.169 0.404 0.073 0.169   0.27   1.51   7.00   0.00   0.00   0.05 
 67- 90 0.096 0.169 0.404 0.073 0.169   0.27   1.51   7.00   0.00   0.00   0.05 
                                                                                
TOT- 90  13.3  21.7  34.0   8.4  21.7  <--cm   -  kg/ha-->    0.0    0.0  51964 
SOIL ALBEDO    : 0.09      EVAPORATION LIMIT : 6.00         MIN. FACTOR  : 1.00 
RUNOFF CURVE # :76.00      DRAINAGE RATE     : 0.60         FERT. FACTOR : 1.00 
                                                                                
 Maize      CULTIVAR :CI0001-P30F35             ECOTYPE :IB0001                 
 P1     : 200.00  P2     : 0.3000  P5     : 925.00                              
 G2     : 954.00  G3     :  7.000  PHINT  : 50.000                              


*SIMULATED CROP AND SOIL STATUS AT MAIN DEVELOPMENT STAGES

 RUN NO.     8     P05/07                  

        CROP GROWTH     BIOMASS         LEAF   CROP N     STRESS      STRESS                                           
   DATE  AGE STAGE        kg/ha    LAI   NUM  kg/ha  %   H2O  Nitr Phos1 Phos2  RSTG                                   
 ------  --- ----------   -----  -----  ----  ---  ---  ----  ----  ----  ----  ----                                   
  7 APR    0 Start Sim        0   0.00   0.0    0  0.0  0.00  0.00  0.00  0.00     7
  7 MAY    0 Sowing           0   0.00   0.0    0  0.0  0.00  0.00  0.00  0.00     8
  8 MAY    1 Germinate        0   0.00   0.0    0  0.0  0.00  0.00  0.00  0.00     9
 13 MAY    6 Emergence       25   0.00   1.9    1  4.4  0.00  0.01  0.00  0.00     1
 25 MAY   18 End Juveni      56   0.12   6.7    2  3.6  0.00  0.00  0.00  0.00     2
  1 JUN   25 Floral Ini     175   0.35   9.0    6  3.6  0.00  0.00  0.00  0.00     3
  8 JUL   62 75% Silkin    3968   1.89  19.0   83  2.1  0.25  0.02  0.00  0.00     4
 18 JUL   72 Beg Gr Fil    4095   1.32  19.0   83  2.0  0.77  0.00  0.00  0.00     5
 29 AUG  114 End Gr Fil    5013   0.26  19.0   83  1.7  0.80  0.00  0.00  0.00     6
  1 SEP  117 Maturity      5013   0.26  19.0   83  1.7  0.43  0.00  0.00  0.00    10
[...]
 NITROGEN BAL.  : SOIL-N & N-UPTAKE SIMULATION; NO N-FIXATION                   
 N-FERTILIZER   :      161 kg/ha IN     5 APPLICATIONS                          
 RESIDUE/MANURE : INITIAL :     0 kg/ha ;       0 kg/ha IN     0 APPLICATIONS   
 ENVIRONM. OPT. : DAYL=    0.00  SRAD=    0.00  TMAX=    0.00  TMIN=    0.00    
                  RAIN=    0.00  CO2 =    0.00  DEW =    0.00  WIND=    0.00    
 SIMULATION OPT : WATER   :Y  NITROGEN:Y  N-FIX:N  PHOSPH :N  PESTS  :N         
                  PHOTO   :C  ET      :R  INFIL:S  HYDROL :R  SOM    :G         
                  CO2 374ppm  NSWIT   :1  EVAP :S  SOIL   :2  STEMP  :D         
 MANAGEMENT OPT : PLANTING:R  IRRIG   :N  FERT :D  RESIDUE:R  HARVEST:M         
                  WEATHER :M  TILLAGE :N                                        
                                                                                
*SUMMARY OF SOIL AND GENETIC INPUT PARAMETERS                                   
                                                                                
   SOIL LOWER UPPER   SAT  EXTR  INIT   ROOT   BULK     pH    NO3    NH4    ORG 
  DEPTH LIMIT LIMIT    SW    SW    SW   DIST   DENS                          C  
   cm   cm3/cm3    cm3/cm3    cm3/cm3         g/cm3         ugN/g  ugN/g     %  
------------------------------------------------------------------------------- 
  0-  5 0.215 0.331 0.341 0.116 0.331   1.00   1.68   6.70   0.00   0.00   0.75 
  5- 15 0.215 0.331 0.341 0.116 0.331   1.00   1.68   6.70   0.00   0.00   0.75 
 15- 25 0.215 0.331 0.341 0.116 0.331   1.00   1.68   6.70   0.00   0.00   0.75 
 25- 35 0.181 0.291 0.364 0.110 0.291   0.50   1.61   7.20   0.00   0.00   0.53 
 35- 45 0.181 0.291 0.364 0.110 0.291   0.50   1.61   7.20   0.00   0.00   0.53 
 45- 67 0.096 0.169 0.404 0.073 0.169   0.27   1.51   7.00   0.00   0.00   0.05 
 67- 90 0.096 0.169 0.404 0.073 0.169   0.27   1.51   7.00   0.00   0.00   0.05 
                                                                                
TOT- 90  13.3  21.7  34.0   8.4  21.7  <--cm   -  kg/ha-->    0.0    0.0  51964 
SOIL ALBEDO    : 0.09      EVAPORATION LIMIT : 6.00         MIN. FACTOR  : 1.00 
RUNOFF CURVE # :76.00      DRAINAGE RATE     : 0.60         FERT. FACTOR : 1.00 
                                                                                
 Maize      CULTIVAR :CI0001-P30F35             ECOTYPE :IB0001                 
 P1     : 200.00  P2     : 0.3000  P5     : 925.00                              
 G2     : 954.00  G3     :  7.000  PHINT  : 50.000                              


*SIMULATED CROP AND SOIL STATUS AT MAIN DEVELOPMENT STAGES

 RUN NO.    35     P12/14                  

        CROP GROWTH     BIOMASS         LEAF   CROP N     STRESS      STRESS                                           
   DATE  AGE STAGE        kg/ha    LAI   NUM  kg/ha  %   H2O  Nitr Phos1 Phos2  RSTG                                   
 ------  --- ----------   -----  -----  ----  ---  ---  ----  ----  ----  ----  ----                                   
 14 NOV    0 Start Sim        0   0.00   0.0    0  0.0  0.00  0.00  0.00  0.00     7
 14 DEC    0 Sowing           0   0.00   0.0    0  0.0  0.00  0.00  0.00  0.00     8
 15 DEC    1 Germinate        0   0.00   0.0    0  0.0  0.00  0.00  0.00  0.00     9
 20 DEC    6 Emergence       25   0.00   2.0    1  4.4  0.00  0.01  0.00  0.00     1
  1 JAN   18 End Juveni      69   0.15   6.7    2  3.3  0.00  0.00  0.00  0.00     2
  5 JAN   22 Floral Ini     154   0.31   8.2    6  3.7  0.00  0.01  0.00  0.00     3
  8 FEB   56 75% Silkin    2460   1.10  17.3   34  1.4  0.35  0.25  0.00  0.00     4
 17 FEB   65 Beg Gr Fil    2675   0.87  17.3   47  1.8  0.65  0.24  0.00  0.00     5
 30 MAR  106 End Gr Fil    3921   0.31  17.3   48  1.2  0.52  0.00  0.00  0.00     6
  1 APR  108 Maturity      3921   0.31  17.3   48  1.2  0.00  0.00  0.00  0.00    10
  1 APR  108 Harvest       3921   0.31  17.3   48  1.2  0.00  0.00  0.00  0.00    10


*MAIN GROWTH AND DEVELOPMENT VARIABLES

@     VARIABLE                                         SIMULATED     MEASURED
      --------                                         ---------     --------
      Anthesis day (dap)                                      56          -99
      Physiological maturity day (dap)                       108          -99
      Yield at harvest maturity (kg [dm]/ha)                1466          -99
      Number at maturity (no/m2)                             709          -99
      Unit wt at maturity (g [dm]/unit)                   0.2068          -99
      Number at maturity (no/unit)                         120.9          -99
      Tops weight at maturity (kg [dm]/ha)                  3921          -99
      By-product produced (stalk) at maturity (kg[dm]/ha    2484          -99
      Leaf area index, maximum                              1.33          -99
      Harvest index at maturity                            0.374          -99
      Grain N at maturity (kg/ha)                             26          -99
      Tops N at maturity (kg/ha)                              48          -99
      Stem N at maturity (kg/ha)                              20          -99
      Grain N at maturity (%)                                1.8          -99
      Tops weight at anthesis (kg [dm]/ha)                  2432          -99
      Tops N at anthesis (kg/ha)                              34          -99
      Leaf number per stem at maturity                     17.33          -99
      Emergence day (dap)                                      6          -99


*ENVIRONMENTAL AND STRESS FACTORS

 |-----Development Phase------|--------------------------------------Environment--------------------------------------|-----------------Stress-----------------|
                              |---------------Average--------------|-----Cumulative-----|--------Count of days--------|          (0=Min, 1=Max Stress)         |
                         Time  Temp  Temp  Temp Solar Photop                Evapo    Pot TMIN TMIN TMAX TMAX TMAX RAIN|----Water----|---Nitrogen--|-Phosphorus-|
                         Span   Max   Min  Mean   Rad  [day]    CO2   Rain  Trans     ET   <    <    >    >    >    >   Photo         Photo         Photo
                         days    邂    邂    邂 MJ/m2     hr    ppm     mm     mm     mm  0邂  2邂 30邂 32邂 34邂  0mm  synth Growth  synth Growth  synth Growth
----------------------------------------------------------------------------------------------------------------------------------------------------------------
 Emergence-End Juvenile    12  29.6  19.2  24.4  14.6   0.00  374.3    0.0   13.1   48.0    0    0    4    2    0    0  0.000  0.000  0.002  0.004  0.000  0.000
 End Juvenil-Floral Init    4  32.5  18.9  25.7  16.4   0.00  374.3    0.0    4.0   18.1    0    0    4    2    0    0  0.000  0.000  0.002  0.005  0.000  0.000
 Floral Init-End Lf Grow   34  31.3  18.6  24.9  16.1   0.00  374.4   13.6   63.2  139.7    0    0   26   13    1    2  0.241  0.329  0.103  0.242  0.000  0.000
 End Lf Grth-Beg Grn Fil    9  32.3  19.6  25.9  10.6   0.00  374.6   13.7   13.2   24.9    0    0    9    4    1    4  0.521  0.644  0.115  0.286  0.000  0.000
 Grain Filling Phase       41  31.7  19.1  25.4  15.7   6.58  374.8   85.0   60.9  173.7    0    0   32   21    2   12  0.505  0.540  0.000  0.000  0.000  0.000


 Planting to Harvest      108  31.5  19.0  25.2  15.1   2.77  374.6  159.8  180.2  433.2    0    0   82   44    6   23  0.311  0.362  0.042  0.101  0.000  0.000
----------------------------------------------------------------------------------------------------------------------------------------------------------------


*Resource Productivity
 Growing season length: 108 days 

 Precipitation during growing season       159.8 mm[rain]
   Dry Matter Productivity                  2.45 kg[DM]/m3[rain]          =   24.5 kg[DM]/ha per mm[rain]
   Yield Productivity                       0.92 kg[grain yield]/m3[rain] =    9.2 kg[yield]/ha per mm[rain]

 Evapotranspiration during growing season  180.2 mm[ET]
   Dry Matter Productivity                  2.18 kg[DM]/m3[ET]            =   21.8 kg[DM]/ha per mm[ET]
   Yield Productivity                       0.81 kg[grain yield]/m3[ET]   =    8.1 kg[yield]/ha per mm[ET]

 Transpiration during growing season        77.1 mm[EP]
   Dry Matter Productivity                  5.09 kg[DM]/m3[EP]            =   50.9 kg[DM]/ha per mm[EP]
   Yield Productivity                       1.90 kg[grain yield]/m3[EP]   =   19.0 kg[yield]/ha per mm[EP]

 N applied during growing season            161. kg[N applied]/ha
   Dry Matter Productivity                  24.4 kg[DM]/kg[N applied]
   Yield Productivity                        9.1 kg[yield]/kg[N applied]

 N uptake during growing season               53 kg[N uptake]/ha
   Dry Matter Productivity                  74.0 kg[DM]/kg[N uptake]
   Yield Productivity                       27.7 kg[yield]/kg[N uptake]

--------------------------------------------------------------------------------------------------------------

                     Maize YIELD :     1466 kg/ha    [Dry weight] 

**************************************************************************************************************

*DSSAT Cropping System Model Ver. 4.6.1.000 -release      OCT 24, 2017; 10:44:52
                                                                                
*RUN  36        : P12/19                    MZCER046 ANBU2002   36              
 MODEL          : MZCER046 - Maize                                              
 EXPERIMENT     : ANBU2002 MZ  Analisis a침os de bajo rendimiento Buga          
 DATA PATH      : C:\DSSAT46\maize\                                             
 TREATMENT 36   : P12/19                    MZCER046                            
                                                                                
                                                                                
 CROP           : Maize            CULTIVAR : P30F35           ECOTYPE :IB0001  
 STARTING DATE  : NOV 19 2002                                                   
 PLANTING DATE  : DEC 19 2002        PLANTS/m2 :  6.2     ROW SPACING :  80.cm  
 WEATHER        : CUNI   2002                                                   
 SOIL           : CCBUGA2017     TEXTURE : CL    -   Suelo Buga MADR Fase I     
 SOIL INITIAL C : DEPTH: 90cm EXTR. H2O: 83.9mm  NO3:  0.0kg/ha  NH4:  0.0kg/ha 
 WATER BALANCE  : RAINFED                                                       
 IRRIGATION     : NOT IRRIGATED                                                 
 NITROGEN BAL.  : SOIL-N & N-UPTAKE SIMULATION; NO N-FIXATION                   
 N-FERTILIZER   :      161 kg/ha IN     5 APPLICATIONS                          
 RESIDUE/MANURE : INITIAL :     0 kg/ha ;       0 kg/ha IN     0 APPLICATIONS   
 ENVIRONM. OPT. : DAYL=    0.00  SRAD=    0.00  TMAX=    0.00  TMIN=    0.00    
                  RAIN=    0.00  CO2 =    0.00  DEW =    0.00  WIND=    0.00    
 SIMULATION OPT : WATER   :Y  NITROGEN:Y  N-FIX:N  PHOSPH :N  PESTS  :N         
                  PHOTO   :C  ET      :R  INFIL:S  HYDROL :R  SOM    :G         
                  CO2 374ppm  NSWIT   :1  EVAP :S  SOIL   :2  STEMP  :D         
 MANAGEMENT OPT : PLANTING:R  IRRIG   :N  FERT :D  RESIDUE:R  HARVEST:M         
                  WEATHER :M  TILLAGE :N                                        
                                                                                
*SUMMARY OF SOIL AND GENETIC INPUT PARAMETERS                                   
                                                                                
   SOIL LOWER UPPER   SAT  EXTR  INIT   ROOT   BULK     pH    NO3    NH4    ORG 
  DEPTH LIMIT LIMIT    SW    SW    SW   DIST   DENS                          C  
   cm   cm3/cm3    cm3/cm3    cm3/cm3         g/cm3         ugN/g  ugN/g     %  
------------------------------------------------------------------------------- 
  0-  5 0.215 0.331 0.341 0.116 0.331   1.00   1.68   6.70   0.00   0.00   0.75 
  5- 15 0.215 0.331 0.341 0.116 0.331   1.00   1.68   6.70   0.00   0.00   0.75 
 15- 25 0.215 0.331 0.341 0.116 0.331   1.00   1.68   6.70   0.00   0.00   0.75 
 25- 35 0.181 0.291 0.364 0.110 0.291   0.50   1.61   7.20   0.00   0.00   0.53 
 35- 45 0.181 0.291 0.364 0.110 0.291   0.50   1.61   7.20   0.00   0.00   0.53 
 45- 67 0.096 0.169 0.404 0.073 0.169   0.27   1.51   7.00   0.00   0.00   0.05 
 67- 90 0.096 0.169 0.404 0.073 0.169   0.27   1.51   7.00   0.00   0.00   0.05 
                                                                                
TOT- 90  13.3  21.7  34.0   8.4  21.7  <--cm   -  kg/ha-->    0.0    0.0  51964 
SOIL ALBEDO    : 0.09      EVAPORATION LIMIT : 6.00         MIN. FACTOR  : 1.00 
RUNOFF CURVE # :76.00      DRAINAGE RATE     : 0.60         FERT. FACTOR : 1.00 
                                                                                
 Maize      CULTIVAR :CI0001-P30F35             ECOTYPE :IB0001                 
 P1     : 200.00  P2     : 0.3000  P5     : 925.00                              
 G2     : 954.00  G3     :  7.000  PHINT  : 50.000                              


*SIMULATED CROP AND SOIL STATUS AT MAIN DEVELOPMENT STAGES

 RUN NO.    36     P12/19                  

        CROP GROWTH     BIOMASS         LEAF   CROP N     STRESS      STRESS                                           
   DATE  AGE STAGE        kg/ha    LAI   NUM  kg/ha  %   H2O  Nitr Phos1 Phos2  RSTG                                   
 ------  --- ----------   -----  -----  ----  ---  ---  ----  ----  ----  ----  ----                                   
 19 NOV    0 Start Sim        0   0.00   0.0    0  0.0  0.00  0.00  0.00  0.00     7
 19 DEC    0 Sowing           0   0.00   0.0    0  0.0  0.00  0.00  0.00  0.00     8
 20 DEC    1 Germinate        0   0.00   0.0    0  0.0  0.00  0.00  0.00  0.00     9
 25 DEC    6 Emergence       25   0.00   2.0    1  4.4  0.00  0.01  0.00  0.00     1
  5 JAN   17 End Juveni      66   0.14   6.5    2  3.4  0.00  0.00  0.00  0.00     2
  9 JAN   21 Floral Ini     141   0.29   7.9    5  3.7  0.00  0.00  0.00  0.00     3
 10 FEB   53 75% Silkin    2484   1.15  16.8   27  1.1  0.36  0.32  0.00  0.00     4
 20 FEB   63 Beg Gr Fil    2784   0.89  16.8   51  1.8  0.62  0.24  0.00  0.00     5
  1 APR  103 End Gr Fil    4302   0.36  16.8   53  1.2  0.47  0.00  0.00  0.00     6
  4 APR  106 Maturity      4302   0.36  16.8   53  1.2  0.00  0.00  0.00  0.00    10
  4 APR  106 Harvest       4302   0.36  16.8   53  1.2  0.00  0.00  0.00  0.00    10


*MAIN GROWTH AND DEVELOPMENT VARIABLES

@     VARIABLE                                         SIMULATED     MEASURED
      --------                                         ---------     --------
      Anthesis day (dap)                                      53          -99
      Physiological maturity day (dap)                       106          -99
      Yield at harvest maturity (kg [dm]/ha)                1713          -99
      Number at maturity (no/m2)                             819          -99
      Unit wt at maturity (g [dm]/unit)                   0.2091          -99
      Number at maturity (no/unit)                         134.7          -99
      Tops weight at maturity (kg [dm]/ha)                  4302          -99
      By-product produced (stalk) at maturity (kg[dm]/ha    2620          -99
      Leaf area index, maximum                              1.50          -99
      Harvest index at maturity                            0.398          -99
      Grain N at maturity (kg/ha)                             31          -99
      Tops N at maturity (kg/ha)                              53          -99
      Stem N at maturity (kg/ha)                              22          -99
      Grain N at maturity (%)                                1.8          -99
      Tops weight at anthesis (kg [dm]/ha)                  2450          -99
      Tops N at anthesis (kg/ha)                              27          -99
      Leaf number per stem at maturity                     16.85          -99
      Emergence day (dap)                                      6          -99


*ENVIRONMENTAL AND STRESS FACTORS

 |-----Development Phase------|--------------------------------------Environment--------------------------------------|-----------------Stress-----------------|
                              |---------------Average--------------|-----Cumulative-----|--------Count of days--------|          (0=Min, 1=Max Stress)         |
                         Time  Temp  Temp  Temp Solar Photop                Evapo    Pot TMIN TMIN TMAX TMAX TMAX RAIN|----Water----|---Nitrogen--|-Phosphorus-|
                         Span   Max   Min  Mean   Rad  [day]    CO2   Rain  Trans     ET   <    <    >    >    >    >   Photo         Photo         Photo
                         days    邂    邂    邂 MJ/m2     hr    ppm     mm     mm     mm  0邂  2邂 30邂 32邂 34邂  0mm  synth Growth  synth Growth  synth Growth
----------------------------------------------------------------------------------------------------------------------------------------------------------------
 Emergence-End Juvenile    11  31.0  19.1  25.1  15.9   0.00  374.3    0.0    8.2   48.4    0    0    7    4    0    0  0.000  0.000  0.003  0.006  0.000  0.000
 End Juvenil-Floral Init    4  30.6  17.8  24.2  16.7   0.00  374.3    0.0    3.5   17.8    0    0    3    0    0    0  0.000  0.000  0.001  0.001  0.000  0.000
 Floral Init-End Lf Grow   32  31.5  18.7  25.1  15.6   0.00  374.5   15.1   58.9  127.4    0    0   25   15    2    3  0.241  0.343  0.140  0.303  0.000  0.000
 End Lf Grth-Beg Grn Fil   10  32.0  19.8  25.9  10.5   0.00  374.6   13.2   16.5   27.2    0    0   10    3    0    4  0.463  0.603  0.155  0.296  0.000  0.000
 Grain Filling Phase       40  31.9  19.0  25.5  16.3   7.49  374.8   90.0   64.9  176.2    0    0   31   22    4   12  0.457  0.488  0.000  0.000  0.000  0.000


 Planting to Harvest      106  31.5  19.0  25.3  15.4   3.27  374.6  118.3  170.0  435.0    0    0   80   47    7   19  0.289  0.345  0.057  0.120  0.000  0.000
----------------------------------------------------------------------------------------------------------------------------------------------------------------


*Resource Productivity
 Growing season length: 106 days 

 Precipitation during growing season       118.3 mm[rain]
   Dry Matter Productivity                  3.64 kg[DM]/m3[rain]          =   36.4 kg[DM]/ha per mm[rain]
   Yield Productivity                       1.45 kg[grain yield]/m3[rain] =   14.5 kg[yield]/ha per mm[rain]

 Evapotranspiration during growing season  170.0 mm[ET]
   Dry Matter Productivity                  2.53 kg[DM]/m3[ET]            =   25.3 kg[DM]/ha per mm[ET]
   Yield Productivity                       1.01 kg[grain yield]/m3[ET]   =   10.1 kg[yield]/ha per mm[ET]

 Transpiration during growing season        80.3 mm[EP]
   Dry Matter Productivity                  5.36 kg[DM]/m3[EP]            =   53.6 kg[DM]/ha per mm[EP]
   Yield Productivity                       2.13 kg[grain yield]/m3[EP]   =   21.3 kg[yield]/ha per mm[EP]

 N applied during growing season            161. kg[N applied]/ha
   Dry Matter Productivity                  26.7 kg[DM]/kg[N applied]
   Yield Productivity                       10.6 kg[yield]/kg[N applied]

 N uptake during growing season               57 kg[N uptake]/ha
   Dry Matter Productivity                  75.5 kg[DM]/kg[N uptake]
   Yield Productivity                       30.1 kg[yield]/kg[N uptake]

--------------------------------------------------------------------------------------------------------------

                     Maize YIELD :     1713 kg/ha    [Dry weight] 

**************************************************************************************************************
