*SIMULATION OVERVIEW FILE

*DSSAT Cropping System Model Ver. 4.6.1.000 -release      OCT 02, 2017; 13:54:36
                                                                                
*RUN   1        : P04/02                    MZCER046 ANBU2002    1              
 MODEL          : MZCER046 - Maize                                              
 EXPERIMENT     : ANBU2002 MZ  Analisis a침os de bajo rendimiento Buga          
 DATA PATH      : C:\DSSAT46\maize\                                             
 TREATMENT  1   : P04/02                    MZCER046                            
                                                                                
                                                                                
 CROP           : Maize            CULTIVAR : DK234            ECOTYPE :IB0001  
 STARTING DATE  : MAR  3 2002                                                   
 PLANTING DATE  : APR  2 2002        PLANTS/m2 :  6.2     ROW SPACING :  80.cm  
 WEATHER        : CUNI   2002                                                   
 SOIL           : CCBUGA2017     TEXTURE : CL    -   Suelo Buga MADR Fase I     
 SOIL INITIAL C : DEPTH: 90cm EXTR. H2O: 83.9mm  NO3:151.4kg/ha  NH4: 62.4kg/ha 
 WATER BALANCE  : RAINFED                                                       
 IRRIGATION     : NOT IRRIGATED                                                 
 NITROGEN BAL.  : SOIL-N & N-UPTAKE SIMULATION; NO N-FIXATION                   
 N-FERTILIZER   :      161 kg/ha IN     5 APPLICATIONS                          
 RESIDUE/MANURE : INITIAL :     0 kg/ha ;       0 kg/ha IN     0 APPLICATIONS   
 ENVIRONM. OPT. : DAYL=    0.00  SRAD=    0.00  TMAX=    0.00  TMIN=    0.00    
                  RAIN=    0.00  CO2 =    0.00  DEW =    0.00  WIND=    0.00    
 SIMULATION OPT : WATER   :Y  NITROGEN:Y  N-FIX:N  PHOSPH :N  PESTS  :N         
                  PHOTO   :C  ET      :R  INFIL:S  HYDROL :R  SOM    :G         
                  CO2 372ppm  NSWIT   :1  EVAP :S  SOIL   :2  STEMP  :D         
 MANAGEMENT OPT : PLANTING:R  IRRIG   :N  FERT :D  RESIDUE:R  HARVEST:M         
                  WEATHER :M  TILLAGE :N                                        
                                                                                
*SUMMARY OF SOIL AND GENETIC INPUT PARAMETERS                                   
                                                                                
   SOIL LOWER UPPER   SAT  EXTR  INIT   ROOT   BULK     pH    NO3    NH4    ORG 
  DEPTH LIMIT LIMIT    SW    SW    SW   DIST   DENS                          C  
   cm   cm3/cm3    cm3/cm3    cm3/cm3         g/cm3         ugN/g  ugN/g     %  
------------------------------------------------------------------------------- 
  0-  5 0.215 0.331 0.341 0.116 0.319   1.00   1.68   6.70  11.90   4.21   0.75 
  5- 15 0.215 0.331 0.341 0.116 0.319   1.00   1.68   6.70  11.90   4.21   0.75 
 15- 25 0.215 0.331 0.341 0.116 0.319   1.00   1.68   6.70  11.90   4.21   0.75 
 25- 35 0.181 0.291 0.364 0.110 0.331   0.50   1.61   7.20  12.15   4.32   0.53 
 35- 45 0.181 0.291 0.364 0.110 0.344   0.50   1.61   7.20  12.40   4.44   0.53 
 45- 67 0.096 0.169 0.404 0.073 0.290   0.27   1.51   7.00  10.67   4.47   0.05 
 67- 90 0.096 0.169 0.404 0.073 0.195   0.27   1.51   7.00   7.63   4.53   0.05 
                                                                                
TOT- 90  13.3  21.7  34.0   8.4  25.6  <--cm   -  kg/ha-->  151.4   62.4  51964 
SOIL ALBEDO    : 0.09      EVAPORATION LIMIT : 6.00         MIN. FACTOR  : 1.00 
RUNOFF CURVE # :76.00      DRAINAGE RATE     : 0.60         FERT. FACTOR : 1.00 
                                                                                
 Maize      CULTIVAR :CI0002-DK234              ECOTYPE :IB0001                 
 P1     : 300.00  P2     : 0.4000  P5     :1075.00                              
 G2     : 890.00  G3     :  7.750  PHINT  : 40.000                              


*SIMULATED CROP AND SOIL STATUS AT MAIN DEVELOPMENT STAGES

 RUN NO.     1     P04/02                  

        CROP GROWTH     BIOMASS         LEAF   CROP N     STRESS      STRESS                                           
   DATE  AGE STAGE        kg/ha    LAI   NUM  kg/ha  %   H2O  Nitr Phos1 Phos2  RSTG                                   
 ------  --- ----------   -----  -----  ----  ---  ---  ----  ----  ----  ----  ----                                   
  3 MAR    0 Start Sim        0   0.00   0.0    0  0.0  0.00  0.00  0.00  0.00     7
  2 APR    0 Sowing           0   0.00   0.0    0  0.0  0.00  0.00  0.00  0.00     8
  3 APR    1 Germinate        0   0.00   0.0    0  0.0  0.00  0.00  0.00  0.00     9
  8 APR    6 Emergence       25   0.00   2.2    1  4.4  0.00  0.01  0.00  0.00     1
 25 APR   23 End Juveni     333   0.60  10.1   12  3.5  0.01  0.00  0.00  0.00     2
  2 MAY   30 Floral Ini     739   1.14  13.0   27  3.6  0.00  0.00  0.00  0.00     3
 11 JUN   70 75% Silkin    8304   4.28  26.8  173  2.1  0.13  0.00  0.00  0.00     4
 21 JUN   80 Beg Gr Fil   10577   3.96  26.8  173  1.6  0.18  0.00  0.00  0.00     5
  Crop mature on JD 219 due to slowed grain filling
  8 AUG  128 End Gr Fil   12380   0.50  26.8  173  1.4  0.90  0.00  0.00  0.00     6
  9 AUG  129 Maturity     12380   0.50  26.8  173  1.4  1.00  0.00  0.00  0.00    10
  9 AUG  129 Harvest      12380   0.50  26.8  173  1.4  0.00  0.00  0.00  0.00    10


*MAIN GROWTH AND DEVELOPMENT VARIABLES

@     VARIABLE                                         SIMULATED     MEASURED
      --------                                         ---------     --------
      Anthesis day (dap)                                      70          -99
      Physiological maturity day (dap)                       129          -99
      Yield at harvest maturity (kg [dm]/ha)                3402          -99
      Number at maturity (no/m2)                            3090          -99
      Unit wt at maturity (g [dm]/unit)                   0.1101          -99
      Number at maturity (no/unit)                         498.3          -99
      Tops weight at maturity (kg [dm]/ha)                 12380          -99
      By-product produced (stalk) at maturity (kg[dm]/ha    9062          -99
      Leaf area index, maximum                              4.51          -99
      Harvest index at maturity                            0.275          -99
      Grain N at maturity (kg/ha)                             63          -99
      Tops N at maturity (kg/ha)                             173          -99
      Stem N at maturity (kg/ha)                             110          -99
      Grain N at maturity (%)                                1.9          -99
      Tops weight at anthesis (kg [dm]/ha)                  8000          -99
      Tops N at anthesis (kg/ha)                             170          -99
      Leaf number per stem at maturity                     26.85          -99
      Emergence day (dap)                                      6          -99


*ENVIRONMENTAL AND STRESS FACTORS

 |-----Development Phase------|--------------------------------------Environment--------------------------------------|-----------------Stress-----------------|
                              |---------------Average--------------|-----Cumulative-----|--------Count of days--------|          (0=Min, 1=Max Stress)         |
                         Time  Temp  Temp  Temp Solar Photop                Evapo    Pot TMIN TMIN TMAX TMAX TMAX RAIN|----Water----|---Nitrogen--|-Phosphorus-|
                         Span   Max   Min  Mean   Rad  [day]    CO2   Rain  Trans     ET   <    <    >    >    >    >   Photo         Photo         Photo
                         days    邂    邂    邂 MJ/m2     hr    ppm     mm     mm     mm  0邂  2邂 30邂 32邂 34邂  0mm  synth Growth  synth Growth  synth Growth
----------------------------------------------------------------------------------------------------------------------------------------------------------------
 Emergence-End Juvenile    17  30.2  19.5  24.9  14.1  22.48  372.4   90.0   39.6   66.1    0    0   10    4    0    8  0.000  0.014  0.002  0.005  0.000  0.000
 End Juvenil-Floral Init    7  28.9  19.5  24.2  14.6  24.00  372.5   25.0   26.3   26.3    0    0    3    0    0    5  0.000  0.000  0.000  0.001  0.000  0.000
 Floral Init-End Lf Grow   40  29.3  19.3  24.3  14.6  24.00  372.6  104.2  125.9  138.6    0    0   16    3    0   16  0.076  0.125  0.000  0.000  0.000  0.000
 End Lf Grth-Beg Grn Fil   10  30.9  18.8  24.9  18.5  24.00  372.8    7.0   39.8   43.6    0    0    8    3    0    2  0.075  0.117  0.000  0.000  0.000  0.000
 Grain Filling Phase       48  30.4  18.6  24.5  17.8  24.00  373.0   26.4   49.6  210.4    0    0   30   10    1    9  0.853  0.889  0.000  0.000  0.000  0.000


 Planting to Harvest      129  30.0  19.0  24.5  16.1  23.47  372.8  329.0  307.7  515.5    0    0   71   21    1   45  0.355  0.388  0.000  0.001  0.000  0.000
----------------------------------------------------------------------------------------------------------------------------------------------------------------


*Resource Productivity
 Growing season length: 129 days 

 Precipitation during growing season       329.0 mm[rain]
   Dry Matter Productivity                  3.76 kg[DM]/m3[rain]          =   37.6 kg[DM]/ha per mm[rain]
   Yield Productivity                       1.03 kg[grain yield]/m3[rain] =   10.3 kg[yield]/ha per mm[rain]

 Evapotranspiration during growing season  307.7 mm[ET]
   Dry Matter Productivity                  4.02 kg[DM]/m3[ET]            =   40.2 kg[DM]/ha per mm[ET]
   Yield Productivity                       1.11 kg[grain yield]/m3[ET]   =   11.1 kg[yield]/ha per mm[ET]

 Transpiration during growing season       181.5 mm[EP]
   Dry Matter Productivity                  6.82 kg[DM]/m3[EP]            =   68.2 kg[DM]/ha per mm[EP]
   Yield Productivity                       1.87 kg[grain yield]/m3[EP]   =   18.7 kg[yield]/ha per mm[EP]

 N applied during growing season            161. kg[N applied]/ha
   Dry Matter Productivity                  76.9 kg[DM]/kg[N applied]
   Yield Productivity                       21.1 kg[yield]/kg[N applied]

 N uptake during growing season              186 kg[N uptake]/ha
   Dry Matter Productivity                  66.6 kg[DM]/kg[N uptake]
   Yield Productivity                       18.3 kg[yield]/kg[N uptake]

--------------------------------------------------------------------------------------------------------------

                     Maize YIELD :     3402 kg/ha    [Dry weight] 

**************************************************************************************************************

*DSSAT Cropping System Model Ver. 4.6.1.000 -release      OCT 02, 2017; 13:54:36
                                                                                
*RUN   2        : P04/07                    MZCER046 ANBU2002    2              
 MODEL          : MZCER046 - Maize                                              
 EXPERIMENT     : ANBU2002 MZ  Analisis a침os de bajo rendimiento Buga          
 DATA PATH      : C:\DSSAT46\maize\                                             
 TREATMENT  2   : P04/07                    MZCER046                            
                                                                                
                                                                                
 CROP           : Maize            CULTIVAR : DK234            ECOTYPE :IB0001  
 STARTING DATE  : MAR  8 2002                                                   
 PLANTING DATE  : APR  7 2002        PLANTS/m2 :  6.2     ROW SPACING :  80.cm  
 WEATHER        : CUNI   2002                                                   
 SOIL           : CCBUGA2017     TEXTURE : CL    -   Suelo Buga MADR Fase I     
 SOIL INITIAL C : DEPTH: 90cm EXTR. H2O: 83.9mm  NO3:151.4kg/ha  NH4: 62.4kg/ha 
 WATER BALANCE  : RAINFED                                                       
 IRRIGATION     : NOT IRRIGATED                                                 
 NITROGEN BAL.  : SOIL-N & N-UPTAKE SIMULATION; NO N-FIXATION                   
 N-FERTILIZER   :      161 kg/ha IN     5 APPLICATIONS                          
 RESIDUE/MANURE : INITIAL :     0 kg/ha ;       0 kg/ha IN     0 APPLICATIONS   
 ENVIRONM. OPT. : DAYL=    0.00  SRAD=    0.00  TMAX=    0.00  TMIN=    0.00    
                  RAIN=    0.00  CO2 =    0.00  DEW =    0.00  WIND=    0.00    
 SIMULATION OPT : WATER   :Y  NITROGEN:Y  N-FIX:N  PHOSPH :N  PESTS  :N         
                  PHOTO   :C  ET      :R  INFIL:S  HYDROL :R  SOM    :G         
                  CO2 372ppm  NSWIT   :1  EVAP :S  SOIL   :2  STEMP  :D         
 MANAGEMENT OPT : PLANTING:R  IRRIG   :N  FERT :D  RESIDUE:R  HARVEST:M         
                  WEATHER :M  TILLAGE :N                                        
                                                                                
*SUMMARY OF SOIL AND GENETIC INPUT PARAMETERS                                   
                                                                                
   SOIL LOWER UPPER   SAT  EXTR  INIT   ROOT   BULK     pH    NO3    NH4    ORG 
  DEPTH LIMIT LIMIT    SW    SW    SW   DIST   DENS                          C  
   cm   cm3/cm3    cm3/cm3    cm3/cm3         g/cm3         ugN/g  ugN/g     %  
------------------------------------------------------------------------------- 
  0-  5 0.215 0.331 0.341 0.116 0.319   1.00   1.68   6.70  11.90   4.21   0.75 
  5- 15 0.215 0.331 0.341 0.116 0.319   1.00   1.68   6.70  11.90   4.21   0.75 
 15- 25 0.215 0.331 0.341 0.116 0.319   1.00   1.68   6.70  11.90   4.21   0.75 
 25- 35 0.181 0.291 0.364 0.110 0.331   0.50   1.61   7.20  12.15   4.32   0.53 
 35- 45 0.181 0.291 0.364 0.110 0.344   0.50   1.61   7.20  12.40   4.44   0.53 
 45- 67 0.096 0.169 0.404 0.073 0.290   0.27   1.51   7.00  10.67   4.47   0.05 
 67- 90 0.096 0.169 0.404 0.073 0.195   0.27   1.51   7.00   7.63   4.53   0.05 
                                                                                
TOT- 90  13.3  21.7  34.0   8.4  25.6  <--cm   -  kg/ha-->  151.4   62.4  51964 
SOIL ALBEDO    : 0.09      EVAPORATION LIMIT : 6.00         MIN. FACTOR  : 1.00 
RUNOFF CURVE # :76.00      DRAINAGE RATE     : 0.60         FERT. FACTOR : 1.00 
                                                                                
 Maize      CULTIVAR :CI0002-DK234              ECOTYPE :IB0001                 
 P1     : 300.00  P2     : 0.4000  P5     :1075.00                              
 G2     : 890.00  G3     :  7.750  PHINT  : 40.000                              


*SIMULATED CROP AND SOIL STATUS AT MAIN DEVELOPMENT STAGES

 RUN NO.     2     P04/07                  

        CROP GROWTH     BIOMASS         LEAF   CROP N     STRESS      STRESS                                           
   DATE  AGE STAGE        kg/ha    LAI   NUM  kg/ha  %   H2O  Nitr Phos1 Phos2  RSTG                                   
 ------  --- ----------   -----  -----  ----  ---  ---  ----  ----  ----  ----  ----                                   
  8 MAR    0 Start Sim        0   0.00   0.0    0  0.0  0.00  0.00  0.00  0.00     7
  7 APR    0 Sowing           0   0.00   0.0    0  0.0  0.00  0.00  0.00  0.00     8
  8 APR    1 Germinate        0   0.00   0.0    0  0.0  0.00  0.00  0.00  0.00     9
 13 APR    6 Emergence       25   0.00   2.2    1  4.4  0.00  0.01  0.00  0.00     1
 30 APR   23 End Juveni     207   0.40  10.0    7  3.4  0.00  0.00  0.00  0.00     2
  8 MAY   31 Floral Ini     838   1.26  13.3   30  3.6  0.00  0.00  0.00  0.00     3
 17 JUN   71 75% Silkin    8970   4.62  27.2  181  2.0  0.09  0.00  0.00  0.00     4
 28 JUN   82 Beg Gr Fil    9979   3.38  27.2  181  1.8  0.66  0.00  0.00  0.00     5
  Crop mature on JD 216 due to slowed grain filling
  5 AUG  120 End Gr Fil   11067   0.66  27.2  181  1.6  0.89  0.00  0.00  0.00     6
  6 AUG  121 Maturity     11067   0.66  27.2  181  1.6  1.00  0.00  0.00  0.00    10
  6 AUG  121 Harvest      11067   0.66  27.2  181  1.6  0.00  0.00  0.00  0.00    10


*MAIN GROWTH AND DEVELOPMENT VARIABLES

@     VARIABLE                                         SIMULATED     MEASURED
      --------                                         ---------     --------
      Anthesis day (dap)                                      71          -99
      Physiological maturity day (dap)                       121          -99
      Yield at harvest maturity (kg [dm]/ha)                2723          -99
      Number at maturity (no/m2)                            1833          -99
      Unit wt at maturity (g [dm]/unit)                   0.1486          -99
      Number at maturity (no/unit)                         295.6          -99
      Tops weight at maturity (kg [dm]/ha)                 11067          -99
      By-product produced (stalk) at maturity (kg[dm]/ha    8432          -99
      Leaf area index, maximum                              4.64          -99
      Harvest index at maturity                            0.246          -99
      Grain N at maturity (kg/ha)                             51          -99
      Tops N at maturity (kg/ha)                             181          -99
      Stem N at maturity (kg/ha)                             130          -99
      Grain N at maturity (%)                                1.9          -99
      Tops weight at anthesis (kg [dm]/ha)                  8774          -99
      Tops N at anthesis (kg/ha)                             181          -99
      Leaf number per stem at maturity                     27.20          -99
      Emergence day (dap)                                      6          -99


*ENVIRONMENTAL AND STRESS FACTORS

 |-----Development Phase------|--------------------------------------Environment--------------------------------------|-----------------Stress-----------------|
                              |---------------Average--------------|-----Cumulative-----|--------Count of days--------|          (0=Min, 1=Max Stress)         |
                         Time  Temp  Temp  Temp Solar Photop                Evapo    Pot TMIN TMIN TMAX TMAX TMAX RAIN|----Water----|---Nitrogen--|-Phosphorus-|
                         Span   Max   Min  Mean   Rad  [day]    CO2   Rain  Trans     ET   <    <    >    >    >    >   Photo         Photo         Photo
                         days    邂    邂    邂 MJ/m2     hr    ppm     mm     mm     mm  0邂  2邂 30邂 32邂 34邂  0mm  synth Growth  synth Growth  synth Growth
----------------------------------------------------------------------------------------------------------------------------------------------------------------
 Emergence-End Juvenile    17  29.5  19.6  24.6  14.6  23.81  372.5   81.0   39.8   68.4    0    0    8    2    0   11  0.000  0.000  0.002  0.005  0.000  0.000
 End Juvenil-Floral Init    8  28.7  19.5  24.1  15.1  24.00  372.5    0.0   24.7   31.1    0    0    3    0    0    0  0.000  0.000  0.000  0.000  0.000  0.000
 Floral Init-End Lf Grow   40  29.9  19.2  24.5  15.1  24.00  372.7  111.2  131.9  143.8    0    0   20    6    0   18  0.050  0.093  0.000  0.000  0.000  0.000
 End Lf Grth-Beg Grn Fil   11  29.3  19.0  24.2  17.3  24.00  372.9    0.0   24.4   44.2    0    0    5    0    0    0  0.468  0.584  0.000  0.000  0.000  0.000
 Grain Filling Phase       38  30.5  18.6  24.5  17.8  24.00  373.0   26.4   39.6  166.4    0    0   24    9    1    9  0.861  0.884  0.000  0.000  0.000  0.000


 Planting to Harvest      121  30.0  19.0  24.5  16.0  23.74  372.8  252.6  281.5  480.9    0    0   66   19    1   40  0.338  0.370  0.000  0.001  0.000  0.000
----------------------------------------------------------------------------------------------------------------------------------------------------------------


*Resource Productivity
 Growing season length: 121 days 

 Precipitation during growing season       252.6 mm[rain]
   Dry Matter Productivity                  4.38 kg[DM]/m3[rain]          =   43.8 kg[DM]/ha per mm[rain]
   Yield Productivity                       1.08 kg[grain yield]/m3[rain] =   10.8 kg[yield]/ha per mm[rain]

 Evapotranspiration during growing season  281.5 mm[ET]
   Dry Matter Productivity                  3.93 kg[DM]/m3[ET]            =   39.3 kg[DM]/ha per mm[ET]
   Yield Productivity                       0.97 kg[grain yield]/m3[ET]   =    9.7 kg[yield]/ha per mm[ET]

 Transpiration during growing season       169.8 mm[EP]
   Dry Matter Productivity                  6.52 kg[DM]/m3[EP]            =   65.2 kg[DM]/ha per mm[EP]
   Yield Productivity                       1.60 kg[grain yield]/m3[EP]   =   16.0 kg[yield]/ha per mm[EP]

 N applied during growing season            161. kg[N applied]/ha
   Dry Matter Productivity                  68.7 kg[DM]/kg[N applied]
   Yield Productivity                       16.9 kg[yield]/kg[N applied]

 N uptake during growing season              194 kg[N uptake]/ha
   Dry Matter Productivity                  57.0 kg[DM]/kg[N uptake]
   Yield Productivity                       14.0 kg[yield]/kg[N uptake]

--------------------------------------------------------------------------------------------------------------

                     Maize YIELD :     2723 kg/ha    [Dry weight] 

**************************************************************************************************************

*DSSAT Cropping System Model Ver. 4.6.1.000 -release      OCT 02, 2017; 13:54:37
                                                                                
*RUN   3        : P04/12                    MZCER046 ANBU2002    3              
 MODEL          : MZCER046 - Maize                                              
 EXPERIMENT     : ANBU2002 MZ  Analisis a침os de bajo rendimiento Buga          
 DATA PATH      : C:\DSSAT46\maize\                                             
 TREATMENT  3   : P04/12                    MZCER046                            
                                                                                
                                                                                
 CROP           : Maize            CULTIVAR : DK234            ECOTYPE :IB0001  
 STARTING DATE  : MAR 13 2002                                                   
 PLANTING DATE  : APR 12 2002        PLANTS/m2 :  6.2     ROW SPACING :  80.cm  
 WEATHER        : CUNI   2002                                                   
 SOIL           : CCBUGA2017     TEXTURE : CL    -   Suelo Buga MADR Fase I     
 SOIL INITIAL C : DEPTH: 90cm EXTR. H2O: 83.9mm  NO3:151.4kg/ha  NH4: 62.4kg/ha 
 WATER BALANCE  : RAINFED                                                       
 IRRIGATION     : NOT IRRIGATED                                                 
 NITROGEN BAL.  : SOIL-N & N-UPTAKE SIMULATION; NO N-FIXATION                   
 N-FERTILIZER   :      161 kg/ha IN     5 APPLICATIONS                          
 RESIDUE/MANURE : INITIAL :     0 kg/ha ;       0 kg/ha IN     0 APPLICATIONS   
 ENVIRONM. OPT. : DAYL=    0.00  SRAD=    0.00  TMAX=    0.00  TMIN=    0.00    
                  RAIN=    0.00  CO2 =    0.00  DEW =    0.00  WIND=    0.00    
 SIMULATION OPT : WATER   :Y  NITROGEN:Y  N-FIX:N  PHOSPH :N  PESTS  :N         
                  PHOTO   :C  ET      :R  INFIL:S  HYDROL :R  SOM    :G         
                  CO2 372ppm  NSWIT   :1  EVAP :S  SOIL   :2  STEMP  :D         
 MANAGEMENT OPT : PLANTING:R  IRRIG   :N  FERT :D  RESIDUE:R  HARVEST:M         
                  WEATHER :M  TILLAGE :N                                        
                                                                                
*SUMMARY OF SOIL AND GENETIC INPUT PARAMETERS                                   
                                                                                
   SOIL LOWER UPPER   SAT  EXTR  INIT   ROOT   BULK     pH    NO3    NH4    ORG 
  DEPTH LIMIT LIMIT    SW    SW    SW   DIST   DENS                          C  
   cm   cm3/cm3    cm3/cm3    cm3/cm3         g/cm3         ugN/g  ugN/g     %  
------------------------------------------------------------------------------- 
  0-  5 0.215 0.331 0.341 0.116 0.319   1.00   1.68   6.70  11.90   4.21   0.75 
  5- 15 0.215 0.331 0.341 0.116 0.319   1.00   1.68   6.70  11.90   4.21   0.75 
 15- 25 0.215 0.331 0.341 0.116 0.319   1.00   1.68   6.70  11.90   4.21   0.75 
 25- 35 0.181 0.291 0.364 0.110 0.331   0.50   1.61   7.20  12.15   4.32   0.53 
 35- 45 0.181 0.291 0.364 0.110 0.344   0.50   1.61   7.20  12.40   4.44   0.53 
 45- 67 0.096 0.169 0.404 0.073 0.290   0.27   1.51   7.00  10.67   4.47   0.05 
 67- 90 0.096 0.169 0.404 0.073 0.195   0.27   1.51   7.00   7.63   4.53   0.05 
                                                                                
TOT- 90  13.3  21.7  34.0   8.4  25.6  <--cm   -  kg/ha-->  151.4   62.4  51964 
SOIL ALBEDO    : 0.09      EVAPORATION LIMIT : 6.00         MIN. FACTOR  : 1.00 
RUNOFF CURVE # :76.00      DRAINAGE RATE     : 0.60         FERT. FACTOR : 1.00 
                                                                                
 Maize      CULTIVAR :CI0002-DK234              ECOTYPE :IB0001                 
 P1     : 300.00  P2     : 0.4000  P5     :1075.00                              
 G2     : 890.00  G3     :  7.750  PHINT  : 40.000                              


*SIMULATED CROP AND SOIL STATUS AT MAIN DEVELOPMENT STAGES

 RUN NO.     3     P04/12                  

        CROP GROWTH     BIOMASS         LEAF   CROP N     STRESS      STRESS                                           
   DATE  AGE STAGE        kg/ha    LAI   NUM  kg/ha  %   H2O  Nitr Phos1 Phos2  RSTG                                   
 ------  --- ----------   -----  -----  ----  ---  ---  ----  ----  ----  ----  ----                                   
 13 MAR    0 Start Sim        0   0.00   0.0    0  0.0  0.00  0.00  0.00  0.00     7
 12 APR    0 Sowing           0   0.00   0.0    0  0.0  0.00  0.00  0.00  0.00     8
 13 APR    1 Germinate        0   0.00   0.0    0  0.0  0.00  0.00  0.00  0.00     9
 18 APR    6 Emergence       25   0.00   2.1    1  4.4  0.00  0.01  0.00  0.00     1
  6 MAY   24 End Juveni     277   0.52  10.2    9  3.4  0.00  0.00  0.00  0.00     2
 14 MAY   32 Floral Ini     920   1.36  13.5   33  3.6  0.00  0.00  0.00  0.00     3
 24 JUN   73 75% Silkin    9425   4.57  28.0  199  2.1  0.11  0.00  0.00  0.00     4
  4 JUL   83 Beg Gr Fil    9961   3.34  28.0  199  2.0  0.69  0.00  0.00  0.00     5
  Crop mature on JD 218 due to slowed grain filling
  7 AUG  117 End Gr Fil   10732   0.72  28.0  199  1.8  0.93  0.00  0.00  0.00     6
  8 AUG  118 Maturity     10732   0.72  28.0  199  1.8  1.00  0.00  0.00  0.00    10
  8 AUG  118 Harvest      10732   0.72  28.0  199  1.8  0.00  0.00  0.00  0.00    10


*MAIN GROWTH AND DEVELOPMENT VARIABLES

@     VARIABLE                                         SIMULATED     MEASURED
      --------                                         ---------     --------
      Anthesis day (dap)                                      73          -99
      Physiological maturity day (dap)                       118          -99
      Yield at harvest maturity (kg [dm]/ha)                1883          -99
      Number at maturity (no/m2)                            1416          -99
      Unit wt at maturity (g [dm]/unit)                   0.1330          -99
      Number at maturity (no/unit)                         228.3          -99
      Tops weight at maturity (kg [dm]/ha)                 10732          -99
      By-product produced (stalk) at maturity (kg[dm]/ha    8940          -99
      Leaf area index, maximum                              4.94          -99
      Harvest index at maturity                            0.175          -99
      Grain N at maturity (kg/ha)                             36          -99
      Tops N at maturity (kg/ha)                             199          -99
      Stem N at maturity (kg/ha)                             163          -99
      Grain N at maturity (%)                                1.9          -99
      Tops weight at anthesis (kg [dm]/ha)                  9353          -99
      Tops N at anthesis (kg/ha)                             199          -99
      Leaf number per stem at maturity                     28.00          -99
      Emergence day (dap)                                      6          -99


*ENVIRONMENTAL AND STRESS FACTORS

 |-----Development Phase------|--------------------------------------Environment--------------------------------------|-----------------Stress-----------------|
                              |---------------Average--------------|-----Cumulative-----|--------Count of days--------|          (0=Min, 1=Max Stress)         |
                         Time  Temp  Temp  Temp Solar Photop                Evapo    Pot TMIN TMIN TMAX TMAX TMAX RAIN|----Water----|---Nitrogen--|-Phosphorus-|
                         Span   Max   Min  Mean   Rad  [day]    CO2   Rain  Trans     ET   <    <    >    >    >    >   Photo         Photo         Photo
                         days    邂    邂    邂 MJ/m2     hr    ppm     mm     mm     mm  0邂  2邂 30邂 32邂 34邂  0mm  synth Growth  synth Growth  synth Growth
----------------------------------------------------------------------------------------------------------------------------------------------------------------
 Emergence-End Juvenile    18  28.9  19.6  24.3  14.1  24.00  372.5   80.0   48.3   69.1    0    0    7    0    0   10  0.000  0.000  0.002  0.005  0.000  0.000
 End Juvenil-Floral Init    8  27.9  20.1  24.0  14.2  24.00  372.5    0.3   16.4   28.8    0    0    0    0    0    1  0.000  0.000  0.001  0.001  0.000  0.000
 Floral Init-End Lf Grow   41  30.1  19.1  24.6  15.6  24.00  372.8  110.9  141.4  152.1    0    0   24    6    0   17  0.047  0.092  0.000  0.000  0.000  0.000
 End Lf Grth-Beg Grn Fil   10  29.3  19.0  24.2  17.7  24.00  372.9    7.0   16.4   41.1    0    0    4    1    0    1  0.595  0.672  0.000  0.000  0.000  0.000
 Grain Filling Phase       34  30.7  18.4  24.5  18.2  24.00  373.1   19.4   31.5  151.7    0    0   23    9    1    8  0.905  0.927  0.000  0.000  0.000  0.000


 Planting to Harvest      118  29.9  19.0  24.5  16.2  23.95  372.8  218.6  263.0  473.3    0    0   64   18    1   38  0.336  0.364  0.000  0.001  0.000  0.000
----------------------------------------------------------------------------------------------------------------------------------------------------------------


*Resource Productivity
 Growing season length: 118 days 

 Precipitation during growing season       218.6 mm[rain]
   Dry Matter Productivity                  4.91 kg[DM]/m3[rain]          =   49.1 kg[DM]/ha per mm[rain]
   Yield Productivity                       0.86 kg[grain yield]/m3[rain] =    8.6 kg[yield]/ha per mm[rain]

 Evapotranspiration during growing season  263.0 mm[ET]
   Dry Matter Productivity                  4.08 kg[DM]/m3[ET]            =   40.8 kg[DM]/ha per mm[ET]
   Yield Productivity                       0.72 kg[grain yield]/m3[ET]   =    7.2 kg[yield]/ha per mm[ET]

 Transpiration during growing season       165.8 mm[EP]
   Dry Matter Productivity                  6.47 kg[DM]/m3[EP]            =   64.7 kg[DM]/ha per mm[EP]
   Yield Productivity                       1.14 kg[grain yield]/m3[EP]   =   11.4 kg[yield]/ha per mm[EP]

 N applied during growing season            161. kg[N applied]/ha
   Dry Matter Productivity                  66.7 kg[DM]/kg[N applied]
   Yield Productivity                       11.7 kg[yield]/kg[N applied]

 N uptake during growing season              214 kg[N uptake]/ha
   Dry Matter Productivity                  50.1 kg[DM]/kg[N uptake]
   Yield Productivity                        8.8 kg[yield]/kg[N uptake]

--------------------------------------------------------------------------------------------------------------

                     Maize YIELD :     1883 kg/ha    [Dry weight] 

**************************************************************************************************************

*DSSAT Cropping System Model Ver. 4.6.1.000 -release      OCT 02, 2017; 13:54:37
                                                                                
*RUN   4        : P04/17                    MZCER046 ANBU2002    4              
 MODEL          : MZCER046 - Maize                                              
 EXPERIMENT     : ANBU2002 MZ  Analisis a침os de bajo rendimiento Buga          
 DATA PATH      : C:\DSSAT46\maize\                                             
 TREATMENT  4   : P04/17                    MZCER046                            
                                                                                
                                                                                
 CROP           : Maize            CULTIVAR : DK234            ECOTYPE :IB0001  
 STARTING DATE  : MAR 18 2002                                                   
 PLANTING DATE  : APR 17 2002        PLANTS/m2 :  6.2     ROW SPACING :  80.cm  
 WEATHER        : CUNI   2002                                                   
 SOIL           : CCBUGA2017     TEXTURE : CL    -   Suelo Buga MADR Fase I     
 SOIL INITIAL C : DEPTH: 90cm EXTR. H2O: 83.9mm  NO3:151.4kg/ha  NH4: 62.4kg/ha 
 WATER BALANCE  : RAINFED                                                       
 IRRIGATION     : NOT IRRIGATED                                                 
 NITROGEN BAL.  : SOIL-N & N-UPTAKE SIMULATION; NO N-FIXATION                   
 N-FERTILIZER   :      161 kg/ha IN     5 APPLICATIONS                          
 RESIDUE/MANURE : INITIAL :     0 kg/ha ;       0 kg/ha IN     0 APPLICATIONS   
 ENVIRONM. OPT. : DAYL=    0.00  SRAD=    0.00  TMAX=    0.00  TMIN=    0.00    
                  RAIN=    0.00  CO2 =    0.00  DEW =    0.00  WIND=    0.00    
 SIMULATION OPT : WATER   :Y  NITROGEN:Y  N-FIX:N  PHOSPH :N  PESTS  :N         
                  PHOTO   :C  ET      :R  INFIL:S  HYDROL :R  SOM    :G         
                  CO2 372ppm  NSWIT   :1  EVAP :S  SOIL   :2  STEMP  :D         
 MANAGEMENT OPT : PLANTING:R  IRRIG   :N  FERT :D  RESIDUE:R  HARVEST:M         
                  WEATHER :M  TILLAGE :N                                        
                                                                                
*SUMMARY OF SOIL AND GENETIC INPUT PARAMETERS                                   
                                                                                
   SOIL LOWER UPPER   SAT  EXTR  INIT   ROOT   BULK     pH    NO3    NH4    ORG 
  DEPTH LIMIT LIMIT    SW    SW    SW   DIST   DENS                          C  
   cm   cm3/cm3    cm3/cm3    cm3/cm3         g/cm3         ugN/g  ugN/g     %  
------------------------------------------------------------------------------- 
  0-  5 0.215 0.331 0.341 0.116 0.319   1.00   1.68   6.70  11.90   4.21   0.75 
  5- 15 0.215 0.331 0.341 0.116 0.319   1.00   1.68   6.70  11.90   4.21   0.75 
 15- 25 0.215 0.331 0.341 0.116 0.319   1.00   1.68   6.70  11.90   4.21   0.75 
 25- 35 0.181 0.291 0.364 0.110 0.331   0.50   1.61   7.20  12.15   4.32   0.53 
 35- 45 0.181 0.291 0.364 0.110 0.344   0.50   1.61   7.20  12.40   4.44   0.53 
 45- 67 0.096 0.169 0.404 0.073 0.290   0.27   1.51   7.00  10.67   4.47   0.05 
 67- 90 0.096 0.169 0.404 0.073 0.195   0.27   1.51   7.00   7.63   4.53   0.05 
                                                                                
TOT- 90  13.3  21.7  34.0   8.4  25.6  <--cm   -  kg/ha-->  151.4   62.4  51964 
SOIL ALBEDO    : 0.09      EVAPORATION LIMIT : 6.00         MIN. FACTOR  : 1.00 
RUNOFF CURVE # :76.00      DRAINAGE RATE     : 0.60         FERT. FACTOR : 1.00 
                                                                                
 Maize      CULTIVAR :CI0002-DK234              ECOTYPE :IB0001                 
 P1     : 300.00  P2     : 0.4000  P5     :1075.00                              
 G2     : 890.00  G3     :  7.750  PHINT  : 40.000                              


*SIMULATED CROP AND SOIL STATUS AT MAIN DEVELOPMENT STAGES

 RUN NO.     4     P04/17                  

        CROP GROWTH     BIOMASS         LEAF   CROP N     STRESS      STRESS                                           
   DATE  AGE STAGE        kg/ha    LAI   NUM  kg/ha  %   H2O  Nitr Phos1 Phos2  RSTG                                   
 ------  --- ----------   -----  -----  ----  ---  ---  ----  ----  ----  ----  ----                                   
 18 MAR    0 Start Sim        0   0.00   0.0    0  0.0  0.00  0.00  0.00  0.00     7
 17 APR    0 Sowing           0   0.00   0.0    0  0.0  0.00  0.00  0.00  0.00     8
 18 APR    1 Germinate        0   0.00   0.0    0  0.0  0.00  0.00  0.00  0.00     9
 23 APR    6 Emergence       25   0.00   2.2    1  4.4  0.00  0.01  0.00  0.00     1
 11 MAY   24 End Juveni     351   0.63  10.2   11  3.2  0.00  0.00  0.00  0.00     2
 19 MAY   32 Floral Ini    1028   1.49  13.5   37  3.6  0.00  0.00  0.00  0.00     3
 28 JUN   72 75% Silkin    8892   4.23  27.6  196  2.2  0.14  0.00  0.00  0.00     4
  9 JUL   83 Beg Gr Fil    9365   2.93  27.6  196  2.1  0.71  0.00  0.00  0.00     5
  Crop mature on JD 214 due to slowed grain filling
  3 AUG  108 End Gr Fil    9801   0.95  27.6  196  2.0  0.93  0.00  0.00  0.00     6
  4 AUG  109 Maturity      9801   0.95  27.6  196  2.0  1.00  0.00  0.00  0.00    10
  4 AUG  109 Harvest       9801   0.95  27.6  196  2.0  0.00  0.00  0.00  0.00    10


*MAIN GROWTH AND DEVELOPMENT VARIABLES

@     VARIABLE                                         SIMULATED     MEASURED
      --------                                         ---------     --------
      Anthesis day (dap)                                      72          -99
      Physiological maturity day (dap)                       109          -99
      Yield at harvest maturity (kg [dm]/ha)                1262          -99
      Number at maturity (no/m2)                            1297          -99
      Unit wt at maturity (g [dm]/unit)                   0.0973          -99
      Number at maturity (no/unit)                         209.2          -99
      Tops weight at maturity (kg [dm]/ha)                  9801          -99
      By-product produced (stalk) at maturity (kg[dm]/ha    8632          -99
      Leaf area index, maximum                              4.96          -99
      Harvest index at maturity                            0.129          -99
      Grain N at maturity (kg/ha)                             24          -99
      Tops N at maturity (kg/ha)                             196          -99
      Stem N at maturity (kg/ha)                             172          -99
      Grain N at maturity (%)                                1.9          -99
      Tops weight at anthesis (kg [dm]/ha)                  8846          -99
      Tops N at anthesis (kg/ha)                             196          -99
      Leaf number per stem at maturity                     27.60          -99
      Emergence day (dap)                                      6          -99


*ENVIRONMENTAL AND STRESS FACTORS

 |-----Development Phase------|--------------------------------------Environment--------------------------------------|-----------------Stress-----------------|
                              |---------------Average--------------|-----Cumulative-----|--------Count of days--------|          (0=Min, 1=Max Stress)         |
                         Time  Temp  Temp  Temp Solar Photop                Evapo    Pot TMIN TMIN TMAX TMAX TMAX RAIN|----Water----|---Nitrogen--|-Phosphorus-|
                         Span   Max   Min  Mean   Rad  [day]    CO2   Rain  Trans     ET   <    <    >    >    >    >   Photo         Photo         Photo
                         days    邂    邂    邂 MJ/m2     hr    ppm     mm     mm     mm  0邂  2邂 30邂 32邂 34邂  0mm  synth Growth  synth Growth  synth Growth
----------------------------------------------------------------------------------------------------------------------------------------------------------------
 Emergence-End Juvenile    18  28.9  19.5  24.2  14.5  24.00  372.5   64.3   45.5   70.7    0    0    6    0    0    8  0.000  0.000  0.002  0.005  0.000  0.000
 End Juvenil-Floral Init    8  27.8  20.4  24.1  13.4  24.00  372.6    8.3   16.2   26.9    0    0    1    0    0    2  0.000  0.000  0.000  0.001  0.000  0.000
 Floral Init-End Lf Grow   40  30.2  18.9  24.5  16.1  24.00  372.8  102.6  140.4  153.0    0    0   24    6    0   15  0.075  0.124  0.000  0.000  0.000  0.000
 End Lf Grth-Beg Grn Fil   11  29.6  19.3  24.4  17.9  24.00  372.9   10.8   17.4   46.3    0    0    5    1    0    3  0.638  0.704  0.000  0.000  0.000  0.000
 Grain Filling Phase       25  30.9  18.4  24.7  17.7  24.00  373.1   15.6   23.2  108.4    0    0   18    7    1    6  0.910  0.927  0.000  0.000  0.000  0.000


 Planting to Harvest      109  29.8  19.1  24.4  16.0  24.00  372.8  217.6  253.0  429.8    0    0   56   14    1   37  0.310  0.338  0.000  0.001  0.000  0.000
----------------------------------------------------------------------------------------------------------------------------------------------------------------


*Resource Productivity
 Growing season length: 109 days 

 Precipitation during growing season       217.6 mm[rain]
   Dry Matter Productivity                  4.50 kg[DM]/m3[rain]          =   45.0 kg[DM]/ha per mm[rain]
   Yield Productivity                       0.58 kg[grain yield]/m3[rain] =    5.8 kg[yield]/ha per mm[rain]

 Evapotranspiration during growing season  253.0 mm[ET]
   Dry Matter Productivity                  3.87 kg[DM]/m3[ET]            =   38.7 kg[DM]/ha per mm[ET]
   Yield Productivity                       0.50 kg[grain yield]/m3[ET]   =    5.0 kg[yield]/ha per mm[ET]

 Transpiration during growing season       160.6 mm[EP]
   Dry Matter Productivity                  6.10 kg[DM]/m3[EP]            =   61.0 kg[DM]/ha per mm[EP]
   Yield Productivity                       0.79 kg[grain yield]/m3[EP]   =    7.9 kg[yield]/ha per mm[EP]

 N applied during growing season            161. kg[N applied]/ha
   Dry Matter Productivity                  60.9 kg[DM]/kg[N applied]
   Yield Productivity                        7.8 kg[yield]/kg[N applied]

 N uptake during growing season              213 kg[N uptake]/ha
   Dry Matter Productivity                  46.0 kg[DM]/kg[N uptake]
   Yield Productivity                        5.9 kg[yield]/kg[N uptake]

--------------------------------------------------------------------------------------------------------------

                     Maize YIELD :     1262 kg/ha    [Dry weight] 

**************************************************************************************************************

*DSSAT Cropping System Model Ver. 4.6.1.000 -release      OCT 02, 2017; 13:54:37
                                                                                
*RUN   5        : P04/22                    MZCER046 ANBU2002    5              
 MODEL          : MZCER046 - Maize                                              
 EXPERIMENT     : ANBU2002 MZ  Analisis a침os de bajo rendimiento Buga          
 DATA PATH      : C:\DSSAT46\maize\                                             
 TREATMENT  5   : P04/22                    MZCER046                            
                                                                                
                                                                                
 CROP           : Maize            CULTIVAR : DK234            ECOTYPE :IB0001  
 STARTING DATE  : MAR 23 2002                                                   
 PLANTING DATE  : APR 22 2002        PLANTS/m2 :  6.2     ROW SPACING :  80.cm  
 WEATHER        : CUNI   2002                                                   
 SOIL           : CCBUGA2017     TEXTURE : CL    -   Suelo Buga MADR Fase I     
 SOIL INITIAL C : DEPTH: 90cm EXTR. H2O: 83.9mm  NO3:151.4kg/ha  NH4: 62.4kg/ha 
 WATER BALANCE  : RAINFED                                                       
 IRRIGATION     : NOT IRRIGATED                                                 
 NITROGEN BAL.  : SOIL-N & N-UPTAKE SIMULATION; NO N-FIXATION                   
 N-FERTILIZER   :      161 kg/ha IN     5 APPLICATIONS                          
 RESIDUE/MANURE : INITIAL :     0 kg/ha ;       0 kg/ha IN     0 APPLICATIONS   
 ENVIRONM. OPT. : DAYL=    0.00  SRAD=    0.00  TMAX=    0.00  TMIN=    0.00    
                  RAIN=    0.00  CO2 =    0.00  DEW =    0.00  WIND=    0.00    
 SIMULATION OPT : WATER   :Y  NITROGEN:Y  N-FIX:N  PHOSPH :N  PESTS  :N         
                  PHOTO   :C  ET      :R  INFIL:S  HYDROL :R  SOM    :G         
                  CO2 372ppm  NSWIT   :1  EVAP :S  SOIL   :2  STEMP  :D         
 MANAGEMENT OPT : PLANTING:R  IRRIG   :N  FERT :D  RESIDUE:R  HARVEST:M         
                  WEATHER :M  TILLAGE :N                                        
                                                                                
*SUMMARY OF SOIL AND GENETIC INPUT PARAMETERS                                   
                                                                                
   SOIL LOWER UPPER   SAT  EXTR  INIT   ROOT   BULK     pH    NO3    NH4    ORG 
  DEPTH LIMIT LIMIT    SW    SW    SW   DIST   DENS                          C  
   cm   cm3/cm3    cm3/cm3    cm3/cm3         g/cm3         ugN/g  ugN/g     %  
------------------------------------------------------------------------------- 
  0-  5 0.215 0.331 0.341 0.116 0.319   1.00   1.68   6.70  11.90   4.21   0.75 
  5- 15 0.215 0.331 0.341 0.116 0.319   1.00   1.68   6.70  11.90   4.21   0.75 
 15- 25 0.215 0.331 0.341 0.116 0.319   1.00   1.68   6.70  11.90   4.21   0.75 
 25- 35 0.181 0.291 0.364 0.110 0.331   0.50   1.61   7.20  12.15   4.32   0.53 
 35- 45 0.181 0.291 0.364 0.110 0.344   0.50   1.61   7.20  12.40   4.44   0.53 
 45- 67 0.096 0.169 0.404 0.073 0.290   0.27   1.51   7.00  10.67   4.47   0.05 
 67- 90 0.096 0.169 0.404 0.073 0.195   0.27   1.51   7.00   7.63   4.53   0.05 
                                                                                
TOT- 90  13.3  21.7  34.0   8.4  25.6  <--cm   -  kg/ha-->  151.4   62.4  51964 
SOIL ALBEDO    : 0.09      EVAPORATION LIMIT : 6.00         MIN. FACTOR  : 1.00 
RUNOFF CURVE # :76.00      DRAINAGE RATE     : 0.60         FERT. FACTOR : 1.00 
                                                                                
 Maize      CULTIVAR :CI0002-DK234              ECOTYPE :IB0001                 
 P1     : 300.00  P2     : 0.4000  P5     :1075.00                              
 G2     : 890.00  G3     :  7.750  PHINT  : 40.000                              


*SIMULATED CROP AND SOIL STATUS AT MAIN DEVELOPMENT STAGES

 RUN NO.     5     P04/22                  

        CROP GROWTH     BIOMASS         LEAF   CROP N     STRESS      STRESS                                           
   DATE  AGE STAGE        kg/ha    LAI   NUM  kg/ha  %   H2O  Nitr Phos1 Phos2  RSTG                                   
 ------  --- ----------   -----  -----  ----  ---  ---  ----  ----  ----  ----  ----                                   
 23 MAR    0 Start Sim        0   0.00   0.0    0  0.0  0.00  0.00  0.00  0.00     7
 22 APR    0 Sowing           0   0.00   0.0    0  0.0  0.00  0.00  0.00  0.00     8
 23 APR    1 Germinate        0   0.00   0.0    0  0.0  0.00  0.00  0.00  0.00     9
 28 APR    6 Emergence       25   0.00   2.2    1  4.4  0.00  0.01  0.00  0.00     1
 16 MAY   24 End Juveni     361   0.64  10.2   13  3.5  0.01  0.00  0.00  0.00     2
 24 MAY   32 Floral Ini    1006   1.46  13.5   36  3.6  0.00  0.00  0.00  0.00     3
  4 JUL   73 75% Silkin    8632   3.91  27.9  190  2.2  0.17  0.00  0.00  0.00     4
 14 JUL   83 Beg Gr Fil    8608   2.60  27.9  190  2.2  0.87  0.00  0.00  0.00     5
  2 SEP  133 End Gr Fil    9665   0.33  27.9  190  2.0  0.83  0.00  0.00  0.00     6
  6 SEP  137 Maturity      9665   0.33  27.9  190  2.0  0.74  0.00  0.00  0.00    10
  6 SEP  137 Harvest       9665   0.33  27.9  190  2.0  0.00  0.00  0.00  0.00    10


*MAIN GROWTH AND DEVELOPMENT VARIABLES

@     VARIABLE                                         SIMULATED     MEASURED
      --------                                         ---------     --------
      Anthesis day (dap)                                      73          -99
      Physiological maturity day (dap)                       137          -99
      Yield at harvest maturity (kg [dm]/ha)                1910          -99
      Number at maturity (no/m2)                             885          -99
      Unit wt at maturity (g [dm]/unit)                   0.2157          -99
      Number at maturity (no/unit)                         142.8          -99
      Tops weight at maturity (kg [dm]/ha)                  9665          -99
      By-product produced (stalk) at maturity (kg[dm]/ha    7846          -99
      Leaf area index, maximum                              4.88          -99
      Harvest index at maturity                            0.198          -99
      Grain N at maturity (kg/ha)                             36          -99
      Tops N at maturity (kg/ha)                             190          -99
      Stem N at maturity (kg/ha)                             154          -99
      Grain N at maturity (%)                                1.9          -99
      Tops weight at anthesis (kg [dm]/ha)                  8606          -99
      Tops N at anthesis (kg/ha)                             190          -99
      Leaf number per stem at maturity                     27.93          -99
      Emergence day (dap)                                      6          -99


*ENVIRONMENTAL AND STRESS FACTORS

 |-----Development Phase------|--------------------------------------Environment--------------------------------------|-----------------Stress-----------------|
                              |---------------Average--------------|-----Cumulative-----|--------Count of days--------|          (0=Min, 1=Max Stress)         |
                         Time  Temp  Temp  Temp Solar Photop                Evapo    Pot TMIN TMIN TMAX TMAX TMAX RAIN|----Water----|---Nitrogen--|-Phosphorus-|
                         Span   Max   Min  Mean   Rad  [day]    CO2   Rain  Trans     ET   <    <    >    >    >    >   Photo         Photo         Photo
                         days    邂    邂    邂 MJ/m2     hr    ppm     mm     mm     mm  0邂  2邂 30邂 32邂 34邂  0mm  synth Growth  synth Growth  synth Growth
----------------------------------------------------------------------------------------------------------------------------------------------------------------
 Emergence-End Juvenile    18  28.6  19.8  24.2  14.7  24.00  372.5    7.3   33.4   71.2    0    0    4    0    0    3  0.000  0.011  0.002  0.005  0.000  0.000
 End Juvenil-Floral Init    8  29.3  19.9  24.6  12.9  24.00  372.7   29.5   20.0   26.4    0    0    3    1    0    5  0.000  0.002  0.000  0.001  0.000  0.000
 Floral Init-End Lf Grow   41  30.1  18.8  24.5  16.7  24.00  372.8   88.4  141.4  162.4    0    0   25    6    0   13  0.113  0.150  0.000  0.000  0.000  0.000
 End Lf Grth-Beg Grn Fil   10  30.4  18.9  24.7  17.3  24.00  372.9    6.6   11.5   40.9    0    0    6    2    0    4  0.785  0.857  0.000  0.000  0.000  0.000
 Grain Filling Phase       50  31.2  18.3  24.8  18.4  23.79  373.2   54.0   53.1  234.3    0    0   37   18    4   12  0.822  0.851  0.000  0.000  0.000  0.000


 Planting to Harvest      137  30.3  18.9  24.6  16.8  23.77  372.9  243.0  285.5  580.2    0    0   82   29    4   43  0.405  0.434  0.000  0.001  0.000  0.000
----------------------------------------------------------------------------------------------------------------------------------------------------------------


*Resource Productivity
 Growing season length: 137 days 

 Precipitation during growing season       243.0 mm[rain]
   Dry Matter Productivity                  3.98 kg[DM]/m3[rain]          =   39.8 kg[DM]/ha per mm[rain]
   Yield Productivity                       0.79 kg[grain yield]/m3[rain] =    7.9 kg[yield]/ha per mm[rain]

 Evapotranspiration during growing season  285.5 mm[ET]
   Dry Matter Productivity                  3.39 kg[DM]/m3[ET]            =   33.9 kg[DM]/ha per mm[ET]
   Yield Productivity                       0.67 kg[grain yield]/m3[ET]   =    6.7 kg[yield]/ha per mm[ET]

 Transpiration during growing season       167.3 mm[EP]
   Dry Matter Productivity                  5.78 kg[DM]/m3[EP]            =   57.8 kg[DM]/ha per mm[EP]
   Yield Productivity                       1.14 kg[grain yield]/m3[EP]   =   11.4 kg[yield]/ha per mm[EP]

 N applied during growing season            161. kg[N applied]/ha
   Dry Matter Productivity                  60.0 kg[DM]/kg[N applied]
   Yield Productivity                       11.9 kg[yield]/kg[N applied]

 N uptake during growing season              207 kg[N uptake]/ha
   Dry Matter Productivity                  46.7 kg[DM]/kg[N uptake]
   Yield Productivity                        9.2 kg[yield]/kg[N uptake]

--------------------------------------------------------------------------------------------------------------

                     Maize YIELD :     1910 kg/ha    [Dry weight] 

**************************************************************************************************************

*DSSAT Cropping System Model Ver. 4.6.1.000 -release      OCT 02, 2017; 13:54:37
                                                                                
*RUN   6        : P04/27                    MZCER046 ANBU2002    6              
 MODEL          : MZCER046 - Maize                                              
 EXPERIMENT     : ANBU2002 MZ  Analisis a침os de bajo rendimiento Buga          
 DATA PATH      : C:\DSSAT46\maize\                                             
 TREATMENT  6   : P04/27                    MZCER046                            
                                                                                
                                                                                
 CROP           : Maize            CULTIVAR : DK234            ECOTYPE :IB0001  
 STARTING DATE  : MAR 28 2002                                                   
 PLANTING DATE  : APR 27 2002        PLANTS/m2 :  6.2     ROW SPACING :  80.cm  
 WEATHER        : CUNI   2002                                                   
 SOIL           : CCBUGA2017     TEXTURE : CL    -   Suelo Buga MADR Fase I     
 SOIL INITIAL C : DEPTH: 90cm EXTR. H2O: 83.9mm  NO3:151.4kg/ha  NH4: 62.4kg/ha 
 WATER BALANCE  : RAINFED                                                       
 IRRIGATION     : NOT IRRIGATED                                                 
 NITROGEN BAL.  : SOIL-N & N-UPTAKE SIMULATION; NO N-FIXATION                   
 N-FERTILIZER   :      161 kg/ha IN     5 APPLICATIONS                          
 RESIDUE/MANURE : INITIAL :     0 kg/ha ;       0 kg/ha IN     0 APPLICATIONS   
 ENVIRONM. OPT. : DAYL=    0.00  SRAD=    0.00  TMAX=    0.00  TMIN=    0.00    
                  RAIN=    0.00  CO2 =    0.00  DEW =    0.00  WIND=    0.00    
 SIMULATION OPT : WATER   :Y  NITROGEN:Y  N-FIX:N  PHOSPH :N  PESTS  :N         
                  PHOTO   :C  ET      :R  INFIL:S  HYDROL :R  SOM    :G         
                  CO2 372ppm  NSWIT   :1  EVAP :S  SOIL   :2  STEMP  :D         
 MANAGEMENT OPT : PLANTING:R  IRRIG   :N  FERT :D  RESIDUE:R  HARVEST:M         
                  WEATHER :M  TILLAGE :N                                        
                                                                                
*SUMMARY OF SOIL AND GENETIC INPUT PARAMETERS                                   
                                                                                
   SOIL LOWER UPPER   SAT  EXTR  INIT   ROOT   BULK     pH    NO3    NH4    ORG 
  DEPTH LIMIT LIMIT    SW    SW    SW   DIST   DENS                          C  
   cm   cm3/cm3    cm3/cm3    cm3/cm3         g/cm3         ugN/g  ugN/g     %  
------------------------------------------------------------------------------- 
  0-  5 0.215 0.331 0.341 0.116 0.319   1.00   1.68   6.70  11.90   4.21   0.75 
  5- 15 0.215 0.331 0.341 0.116 0.319   1.00   1.68   6.70  11.90   4.21   0.75 
 15- 25 0.215 0.331 0.341 0.116 0.319   1.00   1.68   6.70  11.90   4.21   0.75 
 25- 35 0.181 0.291 0.364 0.110 0.331   0.50   1.61   7.20  12.15   4.32   0.53 
 35- 45 0.181 0.291 0.364 0.110 0.344   0.50   1.61   7.20  12.40   4.44   0.53 
 45- 67 0.096 0.169 0.404 0.073 0.290   0.27   1.51   7.00  10.67   4.47   0.05 
 67- 90 0.096 0.169 0.404 0.073 0.195   0.27   1.51   7.00   7.63   4.53   0.05 
                                                                                
TOT- 90  13.3  21.7  34.0   8.4  25.6  <--cm   -  kg/ha-->  151.4   62.4  51964 
SOIL ALBEDO    : 0.09      EVAPORATION LIMIT : 6.00         MIN. FACTOR  : 1.00 
RUNOFF CURVE # :76.00      DRAINAGE RATE     : 0.60         FERT. FACTOR : 1.00 
                                                                                
 Maize      CULTIVAR :CI0002-DK234              ECOTYPE :IB0001                 
 P1     : 300.00  P2     : 0.4000  P5     :1075.00                              
 G2     : 890.00  G3     :  7.750  PHINT  : 40.000                              


*SIMULATED CROP AND SOIL STATUS AT MAIN DEVELOPMENT STAGES

 RUN NO.     6     P04/27                  

        CROP GROWTH     BIOMASS         LEAF   CROP N     STRESS      STRESS                                           
   DATE  AGE STAGE        kg/ha    LAI   NUM  kg/ha  %   H2O  Nitr Phos1 Phos2  RSTG                                   
 ------  --- ----------   -----  -----  ----  ---  ---  ----  ----  ----  ----  ----                                   
 28 MAR    0 Start Sim        0   0.00   0.0    0  0.0  0.00  0.00  0.00  0.00     7
 27 APR    0 Sowing           0   0.00   0.0    0  0.0  0.00  0.00  0.00  0.00     8
 28 APR    1 Germinate        0   0.00   0.0    0  0.0  0.00  0.00  0.00  0.00     9
  3 MAY    6 Emergence       25   0.00   2.2    1  4.4  0.00  0.01  0.00  0.00     1
 21 MAY   24 End Juveni     349   0.63  10.2   12  3.5  0.02  0.00  0.00  0.00     2
 29 MAY   32 Floral Ini     860   1.29  13.5   31  3.6  0.00  0.00  0.00  0.00     3
  9 JUL   73 75% Silkin    7871   3.49  27.9  179  2.3  0.21  0.00  0.00  0.00     4
 18 JUL   82 Beg Gr Fil    7725   2.44  27.9  179  2.3  0.81  0.00  0.00  0.00     5
  7 SEP  133 End Gr Fil    8696   0.31  27.9  179  2.1  0.84  0.00  0.00  0.00     6
 11 SEP  137 Maturity      8696   0.31  27.9  179  2.1  1.00  0.00  0.00  0.00    10
 11 SEP  137 Harvest       8696   0.31  27.9  179  2.1  0.00  0.00  0.00  0.00    10


*MAIN GROWTH AND DEVELOPMENT VARIABLES

@     VARIABLE                                         SIMULATED     MEASURED
      --------                                         ---------     --------
      Anthesis day (dap)                                      73          -99
      Physiological maturity day (dap)                       137          -99
      Yield at harvest maturity (kg [dm]/ha)                1402          -99
      Number at maturity (no/m2)                             617          -99
      Unit wt at maturity (g [dm]/unit)                   0.2274          -99
      Number at maturity (no/unit)                         107.0          -99
      Tops weight at maturity (kg [dm]/ha)                  8696          -99
      By-product produced (stalk) at maturity (kg[dm]/ha    7376          -99
      Leaf area index, maximum                              4.53          -99
      Harvest index at maturity                            0.161          -99
      Grain N at maturity (kg/ha)                             26          -99
      Tops N at maturity (kg/ha)                             179          -99
      Stem N at maturity (kg/ha)                             151          -99
      Grain N at maturity (%)                                1.9          -99
      Tops weight at anthesis (kg [dm]/ha)                  7856          -99
      Tops N at anthesis (kg/ha)                             179          -99
      Leaf number per stem at maturity                     27.95          -99
      Emergence day (dap)                                      6          -99


*ENVIRONMENTAL AND STRESS FACTORS

 |-----Development Phase------|--------------------------------------Environment--------------------------------------|-----------------Stress-----------------|
                              |---------------Average--------------|-----Cumulative-----|--------Count of days--------|          (0=Min, 1=Max Stress)         |
                         Time  Temp  Temp  Temp Solar Photop                Evapo    Pot TMIN TMIN TMAX TMAX TMAX RAIN|----Water----|---Nitrogen--|-Phosphorus-|
                         Span   Max   Min  Mean   Rad  [day]    CO2   Rain  Trans     ET   <    <    >    >    >    >   Photo         Photo         Photo
                         days    邂    邂    邂 MJ/m2     hr    ppm     mm     mm     mm  0邂  2邂 30邂 32邂 34邂  0mm  synth Growth  synth Growth  synth Growth
----------------------------------------------------------------------------------------------------------------------------------------------------------------
 Emergence-End Juvenile    18  28.4  20.0  24.2  14.1  24.00  372.6   21.6   19.7   68.0    0    0    3    0    0    4  0.000  0.024  0.002  0.005  0.000  0.000
 End Juvenil-Floral Init    8  30.2  18.7  24.4  14.7  24.00  372.7   23.2   25.8   30.3    0    0    4    2    0    4  0.000  0.000  0.000  0.001  0.000  0.000
 Floral Init-End Lf Grow   41  30.0  18.9  24.5  17.0  24.00  372.8   77.2  136.7  164.9    0    0   24    5    0   13  0.146  0.193  0.000  0.000  0.000  0.000
 End Lf Grth-Beg Grn Fil    9  31.7  18.7  25.2  16.4  24.00  373.0   10.4    8.6   35.6    0    0    8    4    0    3  0.854  0.903  0.000  0.000  0.000  0.000
 Grain Filling Phase       51  31.2  18.4  24.8  18.7  23.24  373.2   47.2   57.7  245.0    0    0   37   18    4   13  0.793  0.822  0.000  0.000  0.000  0.000


 Planting to Harvest      137  30.3  18.8  24.6  17.0  23.50  373.0  194.1  272.5  585.8    0    0   83   29    4   41  0.424  0.455  0.000  0.001  0.000  0.000
----------------------------------------------------------------------------------------------------------------------------------------------------------------


*Resource Productivity
 Growing season length: 137 days 

 Precipitation during growing season       194.1 mm[rain]
   Dry Matter Productivity                  4.48 kg[DM]/m3[rain]          =   44.8 kg[DM]/ha per mm[rain]
   Yield Productivity                       0.72 kg[grain yield]/m3[rain] =    7.2 kg[yield]/ha per mm[rain]

 Evapotranspiration during growing season  272.5 mm[ET]
   Dry Matter Productivity                  3.19 kg[DM]/m3[ET]            =   31.9 kg[DM]/ha per mm[ET]
   Yield Productivity                       0.51 kg[grain yield]/m3[ET]   =    5.1 kg[yield]/ha per mm[ET]

 Transpiration during growing season       159.9 mm[EP]
   Dry Matter Productivity                  5.44 kg[DM]/m3[EP]            =   54.4 kg[DM]/ha per mm[EP]
   Yield Productivity                       0.88 kg[grain yield]/m3[EP]   =    8.8 kg[yield]/ha per mm[EP]

 N applied during growing season            161. kg[N applied]/ha
   Dry Matter Productivity                  54.0 kg[DM]/kg[N applied]
   Yield Productivity                        8.7 kg[yield]/kg[N applied]

 N uptake during growing season              198 kg[N uptake]/ha
   Dry Matter Productivity                  43.9 kg[DM]/kg[N uptake]
   Yield Productivity                        7.1 kg[yield]/kg[N uptake]

--------------------------------------------------------------------------------------------------------------

                     Maize YIELD :     1402 kg/ha    [Dry weight] 

**************************************************************************************************************

*DSSAT Cropping System Model Ver. 4.6.1.000 -release      OCT 02, 2017; 13:54:37
                                                                                
*RUN   7        : P05/02                    MZCER046 ANBU2002    7              
 MODEL          : MZCER046 - Maize                                              
 EXPERIMENT     : ANBU2002 MZ  Analisis a침os de bajo rendimiento Buga          
 DATA PATH      : C:\DSSAT46\maize\                                             
 TREATMENT  7   : P05/02                    MZCER046                            
                                                                                
                                                                                
 CROP           : Maize            CULTIVAR : DK234            ECOTYPE :IB0001  
 STARTING DATE  : APR  2 2002                                                   
 PLANTING DATE  : MAY  2 2002        PLANTS/m2 :  6.2     ROW SPACING :  80.cm  
 WEATHER        : CUNI   2002                                                   
 SOIL           : CCBUGA2017     TEXTURE : CL    -   Suelo Buga MADR Fase I     
 SOIL INITIAL C : DEPTH: 90cm EXTR. H2O: 83.9mm  NO3:151.4kg/ha  NH4: 62.4kg/ha 
 WATER BALANCE  : RAINFED                                                       
 IRRIGATION     : NOT IRRIGATED                                                 
 NITROGEN BAL.  : SOIL-N & N-UPTAKE SIMULATION; NO N-FIXATION                   
 N-FERTILIZER   :      161 kg/ha IN     5 APPLICATIONS                          
 RESIDUE/MANURE : INITIAL :     0 kg/ha ;       0 kg/ha IN     0 APPLICATIONS   
 ENVIRONM. OPT. : DAYL=    0.00  SRAD=    0.00  TMAX=    0.00  TMIN=    0.00    
                  RAIN=    0.00  CO2 =    0.00  DEW =    0.00  WIND=    0.00    
 SIMULATION OPT : WATER   :Y  NITROGEN:Y  N-FIX:N  PHOSPH :N  PESTS  :N         
                  PHOTO   :C  ET      :R  INFIL:S  HYDROL :R  SOM    :G         
                  CO2 372ppm  NSWIT   :1  EVAP :S  SOIL   :2  STEMP  :D         
 MANAGEMENT OPT : PLANTING:R  IRRIG   :N  FERT :D  RESIDUE:R  HARVEST:M         
                  WEATHER :M  TILLAGE :N                                        
                                                                                
*SUMMARY OF SOIL AND GENETIC INPUT PARAMETERS                                   
                                                                                
   SOIL LOWER UPPER   SAT  EXTR  INIT   ROOT   BULK     pH    NO3    NH4    ORG 
  DEPTH LIMIT LIMIT    SW    SW    SW   DIST   DENS                          C  
   cm   cm3/cm3    cm3/cm3    cm3/cm3         g/cm3         ugN/g  ugN/g     %  
------------------------------------------------------------------------------- 
  0-  5 0.215 0.331 0.341 0.116 0.319   1.00   1.68   6.70  11.90   4.21   0.75 
  5- 15 0.215 0.331 0.341 0.116 0.319   1.00   1.68   6.70  11.90   4.21   0.75 
 15- 25 0.215 0.331 0.341 0.116 0.319   1.00   1.68   6.70  11.90   4.21   0.75 
 25- 35 0.181 0.291 0.364 0.110 0.331   0.50   1.61   7.20  12.15   4.32   0.53 
 35- 45 0.181 0.291 0.364 0.110 0.344   0.50   1.61   7.20  12.40   4.44   0.53 
 45- 67 0.096 0.169 0.404 0.073 0.290   0.27   1.51   7.00  10.67   4.47   0.05 
 67- 90 0.096 0.169 0.404 0.073 0.195   0.27   1.51   7.00   7.63   4.53   0.05 
                                                                                
TOT- 90  13.3  21.7  34.0   8.4  25.6  <--cm   -  kg/ha-->  151.4   62.4  51964 
SOIL ALBEDO    : 0.09      EVAPORATION LIMIT : 6.00         MIN. FACTOR  : 1.00 
RUNOFF CURVE # :76.00      DRAINAGE RATE     : 0.60         FERT. FACTOR : 1.00 
                                                                                
 Maize      CULTIVAR :CI0002-DK234              ECOTYPE :IB0001                 
 P1     : 300.00  P2     : 0.4000  P5     :1075.00                              
 G2     : 890.00  G3     :  7.750  PHINT  : 40.000                              


*SIMULATED CROP AND SOIL STATUS AT MAIN DEVELOPMENT STAGES

 RUN NO.     7     P05/02                  

        CROP GROWTH     BIOMASS         LEAF   CROP N     STRESS      STRESS                                           
   DATE  AGE STAGE        kg/ha    LAI   NUM  kg/ha  %   H2O  Nitr Phos1 Phos2  RSTG                                   
 ------  --- ----------   -----  -----  ----  ---  ---  ----  ----  ----  ----  ----                                   
  2 APR    0 Start Sim        0   0.00   0.0    0  0.0  0.00  0.00  0.00  0.00     7
  2 MAY    0 Sowing           0   0.00   0.0    0  0.0  0.00  0.00  0.00  0.00     8
  3 MAY    1 Germinate        0   0.00   0.0    0  0.0  0.00  0.00  0.00  0.00     9
  8 MAY    6 Emergence       25   0.00   2.1    1  4.4  0.00  0.01  0.00  0.00     1
 26 MAY   24 End Juveni     292   0.54  10.3   11  3.7  0.02  0.00  0.00  0.00     2
  3 JUN   32 Floral Ini     875   1.31  13.6   31  3.6  0.00  0.00  0.00  0.00     3
 13 JUL   72 75% Silkin    7096   2.98  28.0  166  2.3  0.27  0.00  0.00  0.00     4
 23 JUL   82 Beg Gr Fil    7072   1.99  28.0  166  2.4  0.83  0.00  0.00  0.00     5
  Crop mature on JD 254 due to slowed grain filling
 12 SEP  133 End Gr Fil    8149   0.25  28.0  166  2.0  0.85  0.00  0.00  0.00     6
 13 SEP  134 Maturity      8149   0.25  28.0  166  2.0  1.00  0.00  0.00  0.00    10
 13 SEP  134 Harvest       8149   0.25  28.0  166  2.0  0.00  0.00  0.00  0.00    10


*MAIN GROWTH AND DEVELOPMENT VARIABLES

@     VARIABLE                                         SIMULATED     MEASURED
      --------                                         ---------     --------
      Anthesis day (dap)                                      72          -99
      Physiological maturity day (dap)                       134          -99
      Yield at harvest maturity (kg [dm]/ha)                1674          -99
      Number at maturity (no/m2)                             754          -99
      Unit wt at maturity (g [dm]/unit)                   0.2218          -99
      Number at maturity (no/unit)                         124.5          -99
      Tops weight at maturity (kg [dm]/ha)                  8149          -99
      By-product produced (stalk) at maturity (kg[dm]/ha    6554          -99
      Leaf area index, maximum                              4.31          -99
      Harvest index at maturity                            0.205          -99
      Grain N at maturity (kg/ha)                             31          -99
      Tops N at maturity (kg/ha)                             166          -99
      Stem N at maturity (kg/ha)                             134          -99
      Grain N at maturity (%)                                1.9          -99
      Tops weight at anthesis (kg [dm]/ha)                  7096          -99
      Tops N at anthesis (kg/ha)                             166          -99
      Leaf number per stem at maturity                     28.02          -99
      Emergence day (dap)                                      6          -99


*ENVIRONMENTAL AND STRESS FACTORS

 |-----Development Phase------|--------------------------------------Environment--------------------------------------|-----------------Stress-----------------|
                              |---------------Average--------------|-----Cumulative-----|--------Count of days--------|          (0=Min, 1=Max Stress)         |
                         Time  Temp  Temp  Temp Solar Photop                Evapo    Pot TMIN TMIN TMAX TMAX TMAX RAIN|----Water----|---Nitrogen--|-Phosphorus-|
                         Span   Max   Min  Mean   Rad  [day]    CO2   Rain  Trans     ET   <    <    >    >    >    >   Photo         Photo         Photo
                         days    邂    邂    邂 MJ/m2     hr    ppm     mm     mm     mm  0邂  2邂 30邂 32邂 34邂  0mm  synth Growth  synth Growth  synth Growth
----------------------------------------------------------------------------------------------------------------------------------------------------------------
 Emergence-End Juvenile    18  29.1  19.8  24.5  13.7  24.00  372.6   40.8   26.1   66.8    0    0    5    2    0    7  0.000  0.024  0.002  0.006  0.000  0.000
 End Juvenil-Floral Init    8  29.6  18.5  24.0  16.5  24.00  372.7    5.3   25.0   34.1    0    0    4    0    0    2  0.000  0.000  0.000  0.001  0.000  0.000
 Floral Init-End Lf Grow   40  30.2  19.0  24.6  16.8  24.00  372.9   78.7  127.6  160.0    0    0   24    6    0   14  0.199  0.246  0.000  0.000  0.000  0.000
 End Lf Grth-Beg Grn Fil   10  31.9  19.0  25.4  16.5  24.00  373.1    8.6   13.2   40.3    0    0   10    4    0    3  0.787  0.825  0.000  0.000  0.000  0.000
 Grain Filling Phase       51  31.1  18.2  24.7  18.8  22.48  373.3   48.7   53.8  247.6    0    0   37   17    4   13  0.819  0.847  0.000  0.000  0.000  0.000


 Planting to Harvest      134  30.4  18.8  24.6  17.1  23.35  373.0  182.1  252.2  578.5    0    0   82   29    4   39  0.437  0.468  0.000  0.001  0.000  0.000
----------------------------------------------------------------------------------------------------------------------------------------------------------------


*Resource Productivity
 Growing season length: 134 days 

 Precipitation during growing season       182.1 mm[rain]
   Dry Matter Productivity                  4.47 kg[DM]/m3[rain]          =   44.7 kg[DM]/ha per mm[rain]
   Yield Productivity                       0.92 kg[grain yield]/m3[rain] =    9.2 kg[yield]/ha per mm[rain]

 Evapotranspiration during growing season  252.2 mm[ET]
   Dry Matter Productivity                  3.23 kg[DM]/m3[ET]            =   32.3 kg[DM]/ha per mm[ET]
   Yield Productivity                       0.66 kg[grain yield]/m3[ET]   =    6.6 kg[yield]/ha per mm[ET]

 Transpiration during growing season       146.8 mm[EP]
   Dry Matter Productivity                  5.55 kg[DM]/m3[EP]            =   55.5 kg[DM]/ha per mm[EP]
   Yield Productivity                       1.14 kg[grain yield]/m3[EP]   =   11.4 kg[yield]/ha per mm[EP]

 N applied during growing season            161. kg[N applied]/ha
   Dry Matter Productivity                  50.6 kg[DM]/kg[N applied]
   Yield Productivity                       10.4 kg[yield]/kg[N applied]

 N uptake during growing season              184 kg[N uptake]/ha
   Dry Matter Productivity                  44.3 kg[DM]/kg[N uptake]
   Yield Productivity                        9.1 kg[yield]/kg[N uptake]

--------------------------------------------------------------------------------------------------------------

                     Maize YIELD :     1674 kg/ha    [Dry weight] 

**************************************************************************************************************

*DSSAT Cropping System Model Ver. 4.6.1.000 -release      OCT 02, 2017; 13:54:37
                                                                                
*RUN   8        : P05/07                    MZCER046 ANBU2002    8              
 MODEL          : MZCER046 - Maize                                              
 EXPERIMENT     : ANBU2002 MZ  Analisis a침os de bajo rendimiento Buga          
 DATA PATH      : C:\DSSAT46\maize\                                             
 TREATMENT  8   : P05/07                    MZCER046                            
                                                                                
                                                                                
 CROP           : Maize            CULTIVAR : DK234            ECOTYPE :IB0001  
 STARTING DATE  : APR  7 2002                                                   
 PLANTING DATE  : MAY  7 2002        PLANTS/m2 :  6.2     ROW SPACING :  80.cm  
 WEATHER        : CUNI   2002                                                   
 SOIL           : CCBUGA2017     TEXTURE : CL    -   Suelo Buga MADR Fase I     
 SOIL INITIAL C : DEPTH: 90cm EXTR. H2O: 83.9mm  NO3:151.4kg/ha  NH4: 62.4kg/ha 
 WATER BALANCE  : RAINFED                                                       
 IRRIGATION     : NOT IRRIGATED                                                 
 NITROGEN BAL.  : SOIL-N & N-UPTAKE SIMULATION; NO N-FIXATION                   
 N-FERTILIZER   :      161 kg/ha IN     5 APPLICATIONS                          
 RESIDUE/MANURE : INITIAL :     0 kg/ha ;       0 kg/ha IN     0 APPLICATIONS   
 ENVIRONM. OPT. : DAYL=    0.00  SRAD=    0.00  TMAX=    0.00  TMIN=    0.00    
                  RAIN=    0.00  CO2 =    0.00  DEW =    0.00  WIND=    0.00    
 SIMULATION OPT : WATER   :Y  NITROGEN:Y  N-FIX:N  PHOSPH :N  PESTS  :N         
                  PHOTO   :C  ET      :R  INFIL:S  HYDROL :R  SOM    :G         
                  CO2 372ppm  NSWIT   :1  EVAP :S  SOIL   :2  STEMP  :D         
 MANAGEMENT OPT : PLANTING:R  IRRIG   :N  FERT :D  RESIDUE:R  HARVEST:M         
                  WEATHER :M  TILLAGE :N                                        
                                                                                
*SUMMARY OF SOIL AND GENETIC INPUT PARAMETERS                                   
                                                                                
   SOIL LOWER UPPER   SAT  EXTR  INIT   ROOT   BULK     pH    NO3    NH4    ORG 
  DEPTH LIMIT LIMIT    SW    SW    SW   DIST   DENS                          C  
   cm   cm3/cm3    cm3/cm3    cm3/cm3         g/cm3         ugN/g  ugN/g     %  
------------------------------------------------------------------------------- 
  0-  5 0.215 0.331 0.341 0.116 0.319   1.00   1.68   6.70  11.90   4.21   0.75 
  5- 15 0.215 0.331 0.341 0.116 0.319   1.00   1.68   6.70  11.90   4.21   0.75 
 15- 25 0.215 0.331 0.341 0.116 0.319   1.00   1.68   6.70  11.90   4.21   0.75 
 25- 35 0.181 0.291 0.364 0.110 0.331   0.50   1.61   7.20  12.15   4.32   0.53 
 35- 45 0.181 0.291 0.364 0.110 0.344   0.50   1.61   7.20  12.40   4.44   0.53 
 45- 67 0.096 0.169 0.404 0.073 0.290   0.27   1.51   7.00  10.67   4.47   0.05 
 67- 90 0.096 0.169 0.404 0.073 0.195   0.27   1.51   7.00   7.63   4.53   0.05 
                                                                                
TOT- 90  13.3  21.7  34.0   8.4  25.6  <--cm   -  kg/ha-->  151.4   62.4  51964 
SOIL ALBEDO    : 0.09      EVAPORATION LIMIT : 6.00         MIN. FACTOR  : 1.00 
RUNOFF CURVE # :76.00      DRAINAGE RATE     : 0.60         FERT. FACTOR : 1.00 
                                                                                
 Maize      CULTIVAR :CI0002-DK234              ECOTYPE :IB0001                 
 P1     : 300.00  P2     : 0.4000  P5     :1075.00                              
 G2     : 890.00  G3     :  7.750  PHINT  : 40.000                              


*SIMULATED CROP AND SOIL STATUS AT MAIN DEVELOPMENT STAGES

 RUN NO.     8     P05/07                  

        CROP GROWTH     BIOMASS         LEAF   CROP N     STRESS      STRESS                                           
   DATE  AGE STAGE        kg/ha    LAI   NUM  kg/ha  %   H2O  Nitr Phos1 Phos2  RSTG                                   
 ------  --- ----------   -----  -----  ----  ---  ---  ----  ----  ----  ----  ----                                   
  7 APR    0 Start Sim        0   0.00   0.0    0  0.0  0.00  0.00  0.00  0.00     7
  7 MAY    0 Sowing           0   0.00   0.0    0  0.0  0.00  0.00  0.00  0.00     8
  8 MAY    1 Germinate        0   0.00   0.0    0  0.0  0.00  0.00  0.00  0.00     9
 13 MAY    6 Emergence       25   0.00   2.1    1  4.4  0.00  0.01  0.00  0.00     1
 31 MAY   24 End Juveni     237   0.45  10.3    8  3.5  0.02  0.01  0.00  0.00     2
  8 JUN   32 Floral Ini     719   1.11  13.7   26  3.6  0.00  0.00  0.00  0.00     3
 19 JUL   73 75% Silkin    5700   2.09  28.1  136  2.4  0.39  0.00  0.00  0.00     4
[...]
 NITROGEN BAL.  : SOIL-N & N-UPTAKE SIMULATION; NO N-FIXATION                   
 N-FERTILIZER   :      161 kg/ha IN     5 APPLICATIONS                          
 RESIDUE/MANURE : INITIAL :     0 kg/ha ;       0 kg/ha IN     0 APPLICATIONS   
 ENVIRONM. OPT. : DAYL=    0.00  SRAD=    0.00  TMAX=    0.00  TMIN=    0.00    
                  RAIN=    0.00  CO2 =    0.00  DEW =    0.00  WIND=    0.00    
 SIMULATION OPT : WATER   :Y  NITROGEN:Y  N-FIX:N  PHOSPH :N  PESTS  :N         
                  PHOTO   :C  ET      :R  INFIL:S  HYDROL :R  SOM    :G         
                  CO2 374ppm  NSWIT   :1  EVAP :S  SOIL   :2  STEMP  :D         
 MANAGEMENT OPT : PLANTING:R  IRRIG   :N  FERT :D  RESIDUE:R  HARVEST:M         
                  WEATHER :M  TILLAGE :N                                        
                                                                                
*SUMMARY OF SOIL AND GENETIC INPUT PARAMETERS                                   
                                                                                
   SOIL LOWER UPPER   SAT  EXTR  INIT   ROOT   BULK     pH    NO3    NH4    ORG 
  DEPTH LIMIT LIMIT    SW    SW    SW   DIST   DENS                          C  
   cm   cm3/cm3    cm3/cm3    cm3/cm3         g/cm3         ugN/g  ugN/g     %  
------------------------------------------------------------------------------- 
  0-  5 0.215 0.331 0.341 0.116 0.319   1.00   1.68   6.70  11.90   4.21   0.75 
  5- 15 0.215 0.331 0.341 0.116 0.319   1.00   1.68   6.70  11.90   4.21   0.75 
 15- 25 0.215 0.331 0.341 0.116 0.319   1.00   1.68   6.70  11.90   4.21   0.75 
 25- 35 0.181 0.291 0.364 0.110 0.331   0.50   1.61   7.20  12.15   4.32   0.53 
 35- 45 0.181 0.291 0.364 0.110 0.344   0.50   1.61   7.20  12.40   4.44   0.53 
 45- 67 0.096 0.169 0.404 0.073 0.290   0.27   1.51   7.00  10.67   4.47   0.05 
 67- 90 0.096 0.169 0.404 0.073 0.195   0.27   1.51   7.00   7.63   4.53   0.05 
                                                                                
TOT- 90  13.3  21.7  34.0   8.4  25.6  <--cm   -  kg/ha-->  151.4   62.4  51964 
SOIL ALBEDO    : 0.09      EVAPORATION LIMIT : 6.00         MIN. FACTOR  : 1.00 
RUNOFF CURVE # :76.00      DRAINAGE RATE     : 0.60         FERT. FACTOR : 1.00 
                                                                                
 Maize      CULTIVAR :CI0002-DK234              ECOTYPE :IB0001                 
 P1     : 300.00  P2     : 0.4000  P5     :1075.00                              
 G2     : 890.00  G3     :  7.750  PHINT  : 40.000                              


*SIMULATED CROP AND SOIL STATUS AT MAIN DEVELOPMENT STAGES

 RUN NO.    35     P12/14                  

        CROP GROWTH     BIOMASS         LEAF   CROP N     STRESS      STRESS                                           
   DATE  AGE STAGE        kg/ha    LAI   NUM  kg/ha  %   H2O  Nitr Phos1 Phos2  RSTG                                   
 ------  --- ----------   -----  -----  ----  ---  ---  ----  ----  ----  ----  ----                                   
 14 NOV    0 Start Sim        0   0.00   0.0    0  0.0  0.00  0.00  0.00  0.00     7
 14 DEC    0 Sowing           0   0.00   0.0    0  0.0  0.00  0.00  0.00  0.00     8
 15 DEC    1 Germinate        0   0.00   0.0    0  0.0  0.00  0.00  0.00  0.00     9
 20 DEC    6 Emergence       25   0.00   2.1    1  4.4  0.00  0.01  0.00  0.00     1
  6 JAN   23 End Juveni     330   0.60  10.1   11  3.5  0.00  0.00  0.00  0.00     2
 10 JAN   27 Floral Ini     656   1.04  11.8   24  3.7  0.00  0.00  0.00  0.00     3
 14 FEB   62 75% Silkin    3177   1.29  24.6   81  2.6  0.62  0.00  0.00  0.00     4
 24 FEB   72 Beg Gr Fil    3117   0.88  24.6   81  2.6  0.82  0.00  0.00  0.00     5
 13 APR  120 End Gr Fil    4778   0.39  24.6   81  1.7  0.34  0.00  0.00  0.00     6
 17 APR  124 Maturity      4778   0.39  24.6   81  1.7  0.00  0.00  0.00  0.00    10
 17 APR  124 Harvest       4778   0.39  24.6   81  1.7  0.00  0.00  0.00  0.00    10


*MAIN GROWTH AND DEVELOPMENT VARIABLES

@     VARIABLE                                         SIMULATED     MEASURED
      --------                                         ---------     --------
      Anthesis day (dap)                                      62          -99
      Physiological maturity day (dap)                       124          -99
      Yield at harvest maturity (kg [dm]/ha)                1468          -99
      Number at maturity (no/m2)                             489          -99
      Unit wt at maturity (g [dm]/unit)                   0.2999          -99
      Number at maturity (no/unit)                          89.9          -99
      Tops weight at maturity (kg [dm]/ha)                  4778          -99
      By-product produced (stalk) at maturity (kg[dm]/ha    3361          -99
      Leaf area index, maximum                              2.24          -99
      Harvest index at maturity                            0.307          -99
      Grain N at maturity (kg/ha)                             26          -99
      Tops N at maturity (kg/ha)                              81          -99
      Stem N at maturity (kg/ha)                              52          -99
      Grain N at maturity (%)                                1.8          -99
      Tops weight at anthesis (kg [dm]/ha)                  3186          -99
      Tops N at anthesis (kg/ha)                              81          -99
      Leaf number per stem at maturity                     24.63          -99
      Emergence day (dap)                                      6          -99


*ENVIRONMENTAL AND STRESS FACTORS

 |-----Development Phase------|--------------------------------------Environment--------------------------------------|-----------------Stress-----------------|
                              |---------------Average--------------|-----Cumulative-----|--------Count of days--------|          (0=Min, 1=Max Stress)         |
                         Time  Temp  Temp  Temp Solar Photop                Evapo    Pot TMIN TMIN TMAX TMAX TMAX RAIN|----Water----|---Nitrogen--|-Phosphorus-|
                         Span   Max   Min  Mean   Rad  [day]    CO2   Rain  Trans     ET   <    <    >    >    >    >   Photo         Photo         Photo
                         days    邂    邂    邂 MJ/m2     hr    ppm     mm     mm     mm  0邂  2邂 30邂 32邂 34邂  0mm  synth Growth  synth Growth  synth Growth
----------------------------------------------------------------------------------------------------------------------------------------------------------------
 Emergence-End Juvenile    17  30.4  19.1  24.7  15.1   0.00  374.3    0.0   20.4   70.1    0    0    9    4    0    0  0.000  0.004  0.002  0.005  0.000  0.000
 End Juvenil-Floral Init    4  31.0  17.7  24.4  16.7   0.00  374.3    0.0    7.6   17.2    0    0    3    1    0    0  0.000  0.000  0.001  0.002  0.000  0.000
 Floral Init-End Lf Grow   35  31.5  18.9  25.2  15.0   0.00  374.5   18.1   67.5  129.7    0    0   28   16    2    4  0.468  0.599  0.000  0.000  0.000  0.000
 End Lf Grth-Beg Grn Fil   10  32.4  19.7  26.0  10.3   0.00  374.7   10.2   13.0   26.7    0    0   10    5    1    3  0.739  0.813  0.000  0.000  0.000  0.000
 Grain Filling Phase       48  31.9  19.1  25.5  17.2  10.69  374.8  119.6   85.3  222.3    0    0   39   25    4   16  0.350  0.358  0.000  0.000  0.000  0.000


 Planting to Harvest      124  31.5  19.1  25.3  15.3   4.89  374.6  219.0  223.8  499.9    0    0   95   51    7   30  0.327  0.374  0.000  0.001  0.000  0.000
----------------------------------------------------------------------------------------------------------------------------------------------------------------


*Resource Productivity
 Growing season length: 124 days 

 Precipitation during growing season       219.0 mm[rain]
   Dry Matter Productivity                  2.18 kg[DM]/m3[rain]          =   21.8 kg[DM]/ha per mm[rain]
   Yield Productivity                       0.67 kg[grain yield]/m3[rain] =    6.7 kg[yield]/ha per mm[rain]

 Evapotranspiration during growing season  223.8 mm[ET]
   Dry Matter Productivity                  2.13 kg[DM]/m3[ET]            =   21.3 kg[DM]/ha per mm[ET]
   Yield Productivity                       0.66 kg[grain yield]/m3[ET]   =    6.6 kg[yield]/ha per mm[ET]

 Transpiration during growing season       104.2 mm[EP]
   Dry Matter Productivity                  4.59 kg[DM]/m3[EP]            =   45.9 kg[DM]/ha per mm[EP]
   Yield Productivity                       1.41 kg[grain yield]/m3[EP]   =   14.1 kg[yield]/ha per mm[EP]

 N applied during growing season            161. kg[N applied]/ha
   Dry Matter Productivity                  29.7 kg[DM]/kg[N applied]
   Yield Productivity                        9.1 kg[yield]/kg[N applied]

 N uptake during growing season               90 kg[N uptake]/ha
   Dry Matter Productivity                  53.1 kg[DM]/kg[N uptake]
   Yield Productivity                       16.3 kg[yield]/kg[N uptake]

--------------------------------------------------------------------------------------------------------------

                     Maize YIELD :     1468 kg/ha    [Dry weight] 

**************************************************************************************************************

*DSSAT Cropping System Model Ver. 4.6.1.000 -release      OCT 02, 2017; 13:54:41
                                                                                
*RUN  36        : P12/19                    MZCER046 ANBU2002   36              
 MODEL          : MZCER046 - Maize                                              
 EXPERIMENT     : ANBU2002 MZ  Analisis a침os de bajo rendimiento Buga          
 DATA PATH      : C:\DSSAT46\maize\                                             
 TREATMENT 36   : P12/19                    MZCER046                            
                                                                                
                                                                                
 CROP           : Maize            CULTIVAR : DK234            ECOTYPE :IB0001  
 STARTING DATE  : NOV 19 2002                                                   
 PLANTING DATE  : DEC 19 2002        PLANTS/m2 :  6.2     ROW SPACING :  80.cm  
 WEATHER        : CUNI   2002                                                   
 SOIL           : CCBUGA2017     TEXTURE : CL    -   Suelo Buga MADR Fase I     
 SOIL INITIAL C : DEPTH: 90cm EXTR. H2O: 83.9mm  NO3:151.4kg/ha  NH4: 62.4kg/ha 
 WATER BALANCE  : RAINFED                                                       
 IRRIGATION     : NOT IRRIGATED                                                 
 NITROGEN BAL.  : SOIL-N & N-UPTAKE SIMULATION; NO N-FIXATION                   
 N-FERTILIZER   :      161 kg/ha IN     5 APPLICATIONS                          
 RESIDUE/MANURE : INITIAL :     0 kg/ha ;       0 kg/ha IN     0 APPLICATIONS   
 ENVIRONM. OPT. : DAYL=    0.00  SRAD=    0.00  TMAX=    0.00  TMIN=    0.00    
                  RAIN=    0.00  CO2 =    0.00  DEW =    0.00  WIND=    0.00    
 SIMULATION OPT : WATER   :Y  NITROGEN:Y  N-FIX:N  PHOSPH :N  PESTS  :N         
                  PHOTO   :C  ET      :R  INFIL:S  HYDROL :R  SOM    :G         
                  CO2 374ppm  NSWIT   :1  EVAP :S  SOIL   :2  STEMP  :D         
 MANAGEMENT OPT : PLANTING:R  IRRIG   :N  FERT :D  RESIDUE:R  HARVEST:M         
                  WEATHER :M  TILLAGE :N                                        
                                                                                
*SUMMARY OF SOIL AND GENETIC INPUT PARAMETERS                                   
                                                                                
   SOIL LOWER UPPER   SAT  EXTR  INIT   ROOT   BULK     pH    NO3    NH4    ORG 
  DEPTH LIMIT LIMIT    SW    SW    SW   DIST   DENS                          C  
   cm   cm3/cm3    cm3/cm3    cm3/cm3         g/cm3         ugN/g  ugN/g     %  
------------------------------------------------------------------------------- 
  0-  5 0.215 0.331 0.341 0.116 0.319   1.00   1.68   6.70  11.90   4.21   0.75 
  5- 15 0.215 0.331 0.341 0.116 0.319   1.00   1.68   6.70  11.90   4.21   0.75 
 15- 25 0.215 0.331 0.341 0.116 0.319   1.00   1.68   6.70  11.90   4.21   0.75 
 25- 35 0.181 0.291 0.364 0.110 0.331   0.50   1.61   7.20  12.15   4.32   0.53 
 35- 45 0.181 0.291 0.364 0.110 0.344   0.50   1.61   7.20  12.40   4.44   0.53 
 45- 67 0.096 0.169 0.404 0.073 0.290   0.27   1.51   7.00  10.67   4.47   0.05 
 67- 90 0.096 0.169 0.404 0.073 0.195   0.27   1.51   7.00   7.63   4.53   0.05 
                                                                                
TOT- 90  13.3  21.7  34.0   8.4  25.6  <--cm   -  kg/ha-->  151.4   62.4  51964 
SOIL ALBEDO    : 0.09      EVAPORATION LIMIT : 6.00         MIN. FACTOR  : 1.00 
RUNOFF CURVE # :76.00      DRAINAGE RATE     : 0.60         FERT. FACTOR : 1.00 
                                                                                
 Maize      CULTIVAR :CI0002-DK234              ECOTYPE :IB0001                 
 P1     : 300.00  P2     : 0.4000  P5     :1075.00                              
 G2     : 890.00  G3     :  7.750  PHINT  : 40.000                              


*SIMULATED CROP AND SOIL STATUS AT MAIN DEVELOPMENT STAGES

 RUN NO.    36     P12/19                  

        CROP GROWTH     BIOMASS         LEAF   CROP N     STRESS      STRESS                                           
   DATE  AGE STAGE        kg/ha    LAI   NUM  kg/ha  %   H2O  Nitr Phos1 Phos2  RSTG                                   
 ------  --- ----------   -----  -----  ----  ---  ---  ----  ----  ----  ----  ----                                   
 19 NOV    0 Start Sim        0   0.00   0.0    0  0.0  0.00  0.00  0.00  0.00     7
 19 DEC    0 Sowing           0   0.00   0.0    0  0.0  0.00  0.00  0.00  0.00     8
 20 DEC    1 Germinate        0   0.00   0.0    0  0.0  0.00  0.00  0.00  0.00     9
 25 DEC    6 Emergence       25   0.00   2.1    1  4.4  0.00  0.01  0.00  0.00     1
 11 JAN   23 End Juveni     366   0.65  10.3   12  3.4  0.00  0.00  0.00  0.00     2
 15 JAN   27 Floral Ini     729   1.13  12.0   27  3.7  0.00  0.00  0.00  0.00     3
 19 FEB   62 75% Silkin    3230   1.40  24.9   77  2.4  0.60  0.00  0.00  0.00     4
  1 MAR   72 Beg Gr Fil    3044   0.88  24.9   77  2.5  0.93  0.00  0.00  0.00     5
 19 APR  121 End Gr Fil    4486   0.50  24.9   77  1.7  0.24  0.00  0.00  0.00     6
 23 APR  125 Maturity      4486   0.50  24.9   77  1.7  0.00  0.00  0.00  0.00    10
 23 APR  125 Harvest       4486   0.50  24.9   77  1.7  0.00  0.00  0.00  0.00    10


*MAIN GROWTH AND DEVELOPMENT VARIABLES

@     VARIABLE                                         SIMULATED     MEASURED
      --------                                         ---------     --------
      Anthesis day (dap)                                      62          -99
      Physiological maturity day (dap)                       125          -99
      Yield at harvest maturity (kg [dm]/ha)                1186          -99
      Number at maturity (no/m2)                             362          -99
      Unit wt at maturity (g [dm]/unit)                   0.3272          -99
      Number at maturity (no/unit)                          71.7          -99
      Tops weight at maturity (kg [dm]/ha)                  4486          -99
      By-product produced (stalk) at maturity (kg[dm]/ha    3352          -99
      Leaf area index, maximum                              2.19          -99
      Harvest index at maturity                            0.264          -99
      Grain N at maturity (kg/ha)                             21          -99
      Tops N at maturity (kg/ha)                              77          -99
      Stem N at maturity (kg/ha)                              52          -99
      Grain N at maturity (%)                                1.7          -99
      Tops weight at anthesis (kg [dm]/ha)                  3233          -99
      Tops N at anthesis (kg/ha)                              77          -99
      Leaf number per stem at maturity                     24.90          -99
      Emergence day (dap)                                      6          -99


*ENVIRONMENTAL AND STRESS FACTORS

 |-----Development Phase------|--------------------------------------Environment--------------------------------------|-----------------Stress-----------------|
                              |---------------Average--------------|-----Cumulative-----|--------Count of days--------|          (0=Min, 1=Max Stress)         |
                         Time  Temp  Temp  Temp Solar Photop                Evapo    Pot TMIN TMIN TMAX TMAX TMAX RAIN|----Water----|---Nitrogen--|-Phosphorus-|
                         Span   Max   Min  Mean   Rad  [day]    CO2   Rain  Trans     ET   <    <    >    >    >    >   Photo         Photo         Photo
                         days    邂    邂    邂 MJ/m2     hr    ppm     mm     mm     mm  0邂  2邂 30邂 32邂 34邂  0mm  synth Growth  synth Growth  synth Growth
----------------------------------------------------------------------------------------------------------------------------------------------------------------
 Emergence-End Juvenile    17  31.1  18.7  24.9  16.3   0.00  374.3    0.0   16.5   75.2    0    0   12    5    0    0  0.000  0.004  0.002  0.006  0.000  0.000
 End Juvenil-Floral Init    4  32.2  19.5  25.8  16.0   0.00  374.3    0.0    7.5   16.8    0    0    4    2    0    0  0.000  0.000  0.001  0.002  0.000  0.000
 Floral Init-End Lf Grow   35  31.5  18.9  25.2  14.2   0.00  374.5   28.3   72.0  122.4    0    0   28   15    2    7  0.430  0.576  0.000  0.000  0.000  0.000
 End Lf Grth-Beg Grn Fil   10  33.0  19.6  26.3  13.8   0.18  374.7    6.0    9.6   35.8    0    0   10    9    1    1  0.884  0.923  0.000  0.000  0.000  0.000
 Grain Filling Phase       49  31.6  19.0  25.3  16.9  13.31  374.9  193.4  107.4  221.8    0    0   37   21    4   20  0.249  0.260  0.000  0.000  0.000  0.000


 Planting to Harvest      125  31.4  19.0  25.2  15.5   6.00  374.7  262.7  238.4  508.6    0    0   92   52    7   32  0.289  0.338  0.000  0.001  0.000  0.000
----------------------------------------------------------------------------------------------------------------------------------------------------------------


*Resource Productivity
 Growing season length: 125 days 

 Precipitation during growing season       262.7 mm[rain]
   Dry Matter Productivity                  1.71 kg[DM]/m3[rain]          =   17.1 kg[DM]/ha per mm[rain]
   Yield Productivity                       0.45 kg[grain yield]/m3[rain] =    4.5 kg[yield]/ha per mm[rain]

 Evapotranspiration during growing season  238.4 mm[ET]
   Dry Matter Productivity                  1.88 kg[DM]/m3[ET]            =   18.8 kg[DM]/ha per mm[ET]
   Yield Productivity                       0.50 kg[grain yield]/m3[ET]   =    5.0 kg[yield]/ha per mm[ET]

 Transpiration during growing season       118.8 mm[EP]
   Dry Matter Productivity                  3.78 kg[DM]/m3[EP]            =   37.8 kg[DM]/ha per mm[EP]
   Yield Productivity                       1.00 kg[grain yield]/m3[EP]   =   10.0 kg[yield]/ha per mm[EP]

 N applied during growing season            161. kg[N applied]/ha
   Dry Matter Productivity                  27.9 kg[DM]/kg[N applied]
   Yield Productivity                        7.4 kg[yield]/kg[N applied]

 N uptake during growing season               86 kg[N uptake]/ha
   Dry Matter Productivity                  52.2 kg[DM]/kg[N uptake]
   Yield Productivity                       13.8 kg[yield]/kg[N uptake]

--------------------------------------------------------------------------------------------------------------

                     Maize YIELD :     1186 kg/ha    [Dry weight] 

**************************************************************************************************************
