*SIMULATION OVERVIEW FILE

*DSSAT Cropping System Model Ver. 4.6.1.000 -release      OCT 02, 2017; 12:56:57
                                                                                
*RUN   1        : P07/14                    MZCER046 ANES1986    1              
 MODEL          : MZCER046 - Maize                                              
 EXPERIMENT     : ANES1986 MZ  Analisis a침os de bajo rendimiento Espinal       
 DATA PATH      : C:\DSSAT46\maize\                                             
 TREATMENT  1   : P07/14                    MZCER046                            
                                                                                
                                                                                
 CROP           : Maize            CULTIVAR : P30F35           ECOTYPE :IB0001  
 STARTING DATE  : JUN 14 1986                                                   
 PLANTING DATE  : JUL 14 1986        PLANTS/m2 :  6.2     ROW SPACING :  80.cm  
 WEATHER        : CNAT   1986                                                   
 SOIL           : CCESPI2017     TEXTURE : SL    -   Suelo Espinal Calibraci    
 SOIL INITIAL C : DEPTH:100cm EXTR. H2O: 83.6mm  NO3:100.0kg/ha  NH4: 72.3kg/ha 
 WATER BALANCE  : RAINFED                                                       
 IRRIGATION     : NOT IRRIGATED                                                 
 NITROGEN BAL.  : SOIL-N & N-UPTAKE SIMULATION; NO N-FIXATION                   
 N-FERTILIZER   :      162 kg/ha IN     6 APPLICATIONS                          
 RESIDUE/MANURE : INITIAL :     0 kg/ha ;       0 kg/ha IN     0 APPLICATIONS   
 ENVIRONM. OPT. : DAYL=    0.00  SRAD=    0.00  TMAX=    0.00  TMIN=    0.00    
                  RAIN=    0.00  CO2 =    0.00  DEW =    0.00  WIND=    0.00    
 SIMULATION OPT : WATER   :Y  NITROGEN:Y  N-FIX:N  PHOSPH :N  PESTS  :N         
                  PHOTO   :C  ET      :R  INFIL:S  HYDROL :R  SOM    :G         
                  CO2 347ppm  NSWIT   :1  EVAP :S  SOIL   :2  STEMP  :D         
 MANAGEMENT OPT : PLANTING:R  IRRIG   :N  FERT :D  RESIDUE:R  HARVEST:M         
                  WEATHER :M  TILLAGE :N                                        
                                                                                
*SUMMARY OF SOIL AND GENETIC INPUT PARAMETERS                                   
                                                                                
   SOIL LOWER UPPER   SAT  EXTR  INIT   ROOT   BULK     pH    NO3    NH4    ORG 
  DEPTH LIMIT LIMIT    SW    SW    SW   DIST   DENS                          C  
   cm   cm3/cm3    cm3/cm3    cm3/cm3         g/cm3         ugN/g  ugN/g     %  
------------------------------------------------------------------------------- 
  0-  5 0.160 0.252 0.376 0.092 0.252   1.00   1.69   6.60   8.90   4.51   0.45 
  5- 15 0.160 0.252 0.376 0.092 0.252   1.00   1.69   6.60   8.90   4.51   0.45 
 15- 30 0.160 0.252 0.376 0.092 0.252   1.00   1.69   6.60   8.90   4.51   0.45 
 30- 53 0.120 0.200 0.440 0.080 0.200   0.27   1.40   7.10   5.60   5.04   0.17 
 53- 77 0.120 0.200 0.440 0.080 0.200   0.27   1.40   7.10   5.60   5.04   0.17 
 77-100 0.120 0.200 0.440 0.080 0.200   0.27   1.40   7.10   5.60   5.04   0.17 
                                                                                
TOT-100  13.2  21.6  42.1   8.4  21.6  <--cm   -  kg/ha-->  100.0   72.3  39475 
SOIL ALBEDO    : 0.09      EVAPORATION LIMIT : 6.00         MIN. FACTOR  : 1.00 
RUNOFF CURVE # :76.00      DRAINAGE RATE     : 0.60         FERT. FACTOR : 1.00 
                                                                                
 Maize      CULTIVAR :CI0001-P30F35             ECOTYPE :IB0001                 
 P1     : 212.00  P2     : 0.3000  P5     : 925.00                              
 G2     : 954.00  G3     :  7.000  PHINT  : 50.000                              


*SIMULATED CROP AND SOIL STATUS AT MAIN DEVELOPMENT STAGES

 RUN NO.     1     P07/14                  

        CROP GROWTH     BIOMASS         LEAF   CROP N     STRESS      STRESS                                           
   DATE  AGE STAGE        kg/ha    LAI   NUM  kg/ha  %   H2O  Nitr Phos1 Phos2  RSTG                                   
 ------  --- ----------   -----  -----  ----  ---  ---  ----  ----  ----  ----  ----                                   
 14 JUN    0 Start Sim        0   0.00   0.0    0  0.0  0.00  0.00  0.00  0.00     7
 14 JUL    0 Sowing           0   0.00   0.0    0  0.0  0.00  0.00  0.00  0.00     8
 15 JUL    1 Germinate        0   0.00   0.0    0  0.0  0.00  0.00  0.00  0.00     9
 19 JUL    5 Emergence       25   0.00   2.1    1  4.4  0.00  0.01  0.00  0.00     1
 29 JUL   15 End Juveni      86   0.19   6.8    3  3.2  0.04  0.00  0.00  0.00     2
  5 AUG   22 Floral Ini     309   0.56   9.8   11  3.6  0.13  0.00  0.00  0.00     3
  6 SEP   54 75% Silkin    3761   1.73  20.4   82  2.2  0.47  0.00  0.00  0.00     4
 14 SEP   62 Beg Gr Fil    3773   1.22  20.4   82  2.2  0.90  0.00  0.00  0.00     5
 21 OCT   99 End Gr Fil    5122   0.85  20.4   82  1.6  0.20  0.00  0.00  0.00     6
 24 OCT  102 Maturity      5122   0.85  20.4   82  1.6  0.00  0.00  0.00  0.00    10
 24 OCT  102 Harvest       5122   0.85  20.4   82  1.6  0.00  0.00  0.00  0.00    10


*MAIN GROWTH AND DEVELOPMENT VARIABLES

@     VARIABLE                                         SIMULATED     MEASURED
      --------                                         ---------     --------
      Anthesis day (dap)                                      54          -99
      Physiological maturity day (dap)                       102          -99
      Yield at harvest maturity (kg [dm]/ha)                1229          -99
      Number at maturity (no/m2)                             590          -99
      Unit wt at maturity (g [dm]/unit)                   0.2084          -99
      Number at maturity (no/unit)                         105.3          -99
      Tops weight at maturity (kg [dm]/ha)                  5122          -99
      By-product produced (stalk) at maturity (kg[dm]/ha    3936          -99
      Leaf area index, maximum                              2.07          -99
      Harvest index at maturity                            0.240          -99
      Grain N at maturity (kg/ha)                             21          -99
      Tops N at maturity (kg/ha)                              82          -99
      Stem N at maturity (kg/ha)                              58          -99
      Grain N at maturity (%)                                1.7          -99
      Tops weight at anthesis (kg [dm]/ha)                  3735          -99
      Tops N at anthesis (kg/ha)                              80          -99
      Leaf number per stem at maturity                     20.41          -99
      Emergence day (dap)                                      5          -99


*ENVIRONMENTAL AND STRESS FACTORS

 |-----Development Phase------|--------------------------------------Environment--------------------------------------|-----------------Stress-----------------|
                              |---------------Average--------------|-----Cumulative-----|--------Count of days--------|          (0=Min, 1=Max Stress)         |
                         Time  Temp  Temp  Temp Solar Photop                Evapo    Pot TMIN TMIN TMAX TMAX TMAX RAIN|----Water----|---Nitrogen--|-Phosphorus-|
                         Span   Max   Min  Mean   Rad  [day]    CO2   Rain  Trans     ET   <    <    >    >    >    >   Photo         Photo         Photo
                         days    邂    邂    邂 MJ/m2     hr    ppm     mm     mm     mm  0邂  2邂 30邂 32邂 34邂  0mm  synth Growth  synth Growth  synth Growth
----------------------------------------------------------------------------------------------------------------------------------------------------------------
 Emergence-End Juvenile    10  34.2  21.0  27.6  19.5  24.00  347.2    0.0    4.2   57.0    0    0    9    9    6    0  0.012  0.041  0.002  0.006  0.000  0.000
 End Juvenil-Floral Init    7  34.8  21.0  27.9  19.5  24.00  347.2    0.0    8.1   39.0    0    0    7    7    6    0  0.000  0.085  0.000  0.000  0.000  0.000
 Floral Init-End Lf Grow   32  34.4  22.3  28.3  20.1  23.00  347.3   48.3   93.0  175.5    0    0   32   26   18    9  0.277  0.448  0.000  0.000  0.000  0.000
 End Lf Grth-Beg Grn Fil    8  36.3  23.2  29.8  18.8  16.01  347.3    0.0    7.8   43.8    0    0    8    8    7    0  0.844  0.896  0.000  0.000  0.000  0.000
 Grain Filling Phase       37  32.0  22.1  27.0  18.6   7.29  347.5  285.9  135.4  189.8    0    0   26   14   10   25  0.220  0.228  0.000  0.000  0.000  0.000


 Planting to Harvest      102  33.5  21.9  27.7  19.2  16.29  347.3  342.6  266.3  545.0    0    0   88   69   49   37  0.234  0.303  0.000  0.001  0.000  0.000
----------------------------------------------------------------------------------------------------------------------------------------------------------------


*Resource Productivity
 Growing season length: 102 days 

 Precipitation during growing season       342.6 mm[rain]
   Dry Matter Productivity                  1.50 kg[DM]/m3[rain]          =   15.0 kg[DM]/ha per mm[rain]
   Yield Productivity                       0.36 kg[grain yield]/m3[rain] =    3.6 kg[yield]/ha per mm[rain]

 Evapotranspiration during growing season  266.3 mm[ET]
   Dry Matter Productivity                  1.92 kg[DM]/m3[ET]            =   19.2 kg[DM]/ha per mm[ET]
   Yield Productivity                       0.46 kg[grain yield]/m3[ET]   =    4.6 kg[yield]/ha per mm[ET]

 Transpiration during growing season       152.8 mm[EP]
   Dry Matter Productivity                  3.35 kg[DM]/m3[EP]            =   33.5 kg[DM]/ha per mm[EP]
   Yield Productivity                       0.80 kg[grain yield]/m3[EP]   =    8.0 kg[yield]/ha per mm[EP]

 N applied during growing season            162. kg[N applied]/ha
   Dry Matter Productivity                  31.6 kg[DM]/kg[N applied]
   Yield Productivity                        7.6 kg[yield]/kg[N applied]

 N uptake during growing season               92 kg[N uptake]/ha
   Dry Matter Productivity                  55.7 kg[DM]/kg[N uptake]
   Yield Productivity                       13.4 kg[yield]/kg[N uptake]

--------------------------------------------------------------------------------------------------------------

                     Maize YIELD :     1229 kg/ha    [Dry weight] 

**************************************************************************************************************

*DSSAT Cropping System Model Ver. 4.6.1.000 -release      OCT 02, 2017; 12:56:57
                                                                                
*RUN   2        : P07/19                    MZCER046 ANES1986    2              
 MODEL          : MZCER046 - Maize                                              
 EXPERIMENT     : ANES1986 MZ  Analisis a침os de bajo rendimiento Espinal       
 DATA PATH      : C:\DSSAT46\maize\                                             
 TREATMENT  2   : P07/19                    MZCER046                            
                                                                                
                                                                                
 CROP           : Maize            CULTIVAR : P30F35           ECOTYPE :IB0001  
 STARTING DATE  : JUN 19 1986                                                   
 PLANTING DATE  : JUL 19 1986        PLANTS/m2 :  6.2     ROW SPACING :  80.cm  
 WEATHER        : CNAT   1986                                                   
 SOIL           : CCESPI2017     TEXTURE : SL    -   Suelo Espinal Calibraci    
 SOIL INITIAL C : DEPTH:100cm EXTR. H2O: 83.6mm  NO3:100.0kg/ha  NH4: 72.3kg/ha 
 WATER BALANCE  : RAINFED                                                       
 IRRIGATION     : NOT IRRIGATED                                                 
 NITROGEN BAL.  : SOIL-N & N-UPTAKE SIMULATION; NO N-FIXATION                   
 N-FERTILIZER   :      162 kg/ha IN     6 APPLICATIONS                          
 RESIDUE/MANURE : INITIAL :     0 kg/ha ;       0 kg/ha IN     0 APPLICATIONS   
 ENVIRONM. OPT. : DAYL=    0.00  SRAD=    0.00  TMAX=    0.00  TMIN=    0.00    
                  RAIN=    0.00  CO2 =    0.00  DEW =    0.00  WIND=    0.00    
 SIMULATION OPT : WATER   :Y  NITROGEN:Y  N-FIX:N  PHOSPH :N  PESTS  :N         
                  PHOTO   :C  ET      :R  INFIL:S  HYDROL :R  SOM    :G         
                  CO2 347ppm  NSWIT   :1  EVAP :S  SOIL   :2  STEMP  :D         
 MANAGEMENT OPT : PLANTING:R  IRRIG   :N  FERT :D  RESIDUE:R  HARVEST:M         
                  WEATHER :M  TILLAGE :N                                        
                                                                                
*SUMMARY OF SOIL AND GENETIC INPUT PARAMETERS                                   
                                                                                
   SOIL LOWER UPPER   SAT  EXTR  INIT   ROOT   BULK     pH    NO3    NH4    ORG 
  DEPTH LIMIT LIMIT    SW    SW    SW   DIST   DENS                          C  
   cm   cm3/cm3    cm3/cm3    cm3/cm3         g/cm3         ugN/g  ugN/g     %  
------------------------------------------------------------------------------- 
  0-  5 0.160 0.252 0.376 0.092 0.252   1.00   1.69   6.60   8.90   4.51   0.45 
  5- 15 0.160 0.252 0.376 0.092 0.252   1.00   1.69   6.60   8.90   4.51   0.45 
 15- 30 0.160 0.252 0.376 0.092 0.252   1.00   1.69   6.60   8.90   4.51   0.45 
 30- 53 0.120 0.200 0.440 0.080 0.200   0.27   1.40   7.10   5.60   5.04   0.17 
 53- 77 0.120 0.200 0.440 0.080 0.200   0.27   1.40   7.10   5.60   5.04   0.17 
 77-100 0.120 0.200 0.440 0.080 0.200   0.27   1.40   7.10   5.60   5.04   0.17 
                                                                                
TOT-100  13.2  21.6  42.1   8.4  21.6  <--cm   -  kg/ha-->  100.0   72.3  39475 
SOIL ALBEDO    : 0.09      EVAPORATION LIMIT : 6.00         MIN. FACTOR  : 1.00 
RUNOFF CURVE # :76.00      DRAINAGE RATE     : 0.60         FERT. FACTOR : 1.00 
                                                                                
 Maize      CULTIVAR :CI0001-P30F35             ECOTYPE :IB0001                 
 P1     : 212.00  P2     : 0.3000  P5     : 925.00                              
 G2     : 954.00  G3     :  7.000  PHINT  : 50.000                              


*SIMULATED CROP AND SOIL STATUS AT MAIN DEVELOPMENT STAGES

 RUN NO.     2     P07/19                  

        CROP GROWTH     BIOMASS         LEAF   CROP N     STRESS      STRESS                                           
   DATE  AGE STAGE        kg/ha    LAI   NUM  kg/ha  %   H2O  Nitr Phos1 Phos2  RSTG                                   
 ------  --- ----------   -----  -----  ----  ---  ---  ----  ----  ----  ----  ----                                   
 19 JUN    0 Start Sim        0   0.00   0.0    0  0.0  0.00  0.00  0.00  0.00     7
 19 JUL    0 Sowing           0   0.00   0.0    0  0.0  0.00  0.00  0.00  0.00     8
 20 JUL    1 Germinate        0   0.00   0.0    0  0.0  0.00  0.00  0.00  0.00     9
 24 JUL    5 Emergence       25   0.00   2.1    1  4.4  0.00  0.01  0.00  0.00     1
  3 AUG   15 End Juveni      95   0.21   6.9    3  3.2  0.00  0.00  0.00  0.00     2
 10 AUG   22 Floral Ini     327   0.59  10.0   12  3.6  0.19  0.00  0.00  0.00     3
 11 SEP   54 75% Silkin    3674   1.72  20.9   87  2.4  0.45  0.00  0.00  0.00     4
 19 SEP   62 Beg Gr Fil    3644   1.20  20.9   87  2.4  0.92  0.00  0.00  0.00     5
 28 OCT  101 End Gr Fil    5136   1.05  20.9   87  1.7  0.07  0.00  0.00  0.00     6
 31 OCT  104 Maturity      5136   1.05  20.9   87  1.7  0.00  0.00  0.00  0.00    10
 31 OCT  104 Harvest       5136   1.05  20.9   87  1.7  0.00  0.00  0.00  0.00    10


*MAIN GROWTH AND DEVELOPMENT VARIABLES

@     VARIABLE                                         SIMULATED     MEASURED
      --------                                         ---------     --------
      Anthesis day (dap)                                      54          -99
      Physiological maturity day (dap)                       104          -99
      Yield at harvest maturity (kg [dm]/ha)                1323          -99
      Number at maturity (no/m2)                             534          -99
      Unit wt at maturity (g [dm]/unit)                   0.2479          -99
      Number at maturity (no/unit)                          97.7          -99
      Tops weight at maturity (kg [dm]/ha)                  5136          -99
      By-product produced (stalk) at maturity (kg[dm]/ha    3857          -99
      Leaf area index, maximum                              2.23          -99
      Harvest index at maturity                            0.258          -99
      Grain N at maturity (kg/ha)                             23          -99
      Tops N at maturity (kg/ha)                              87          -99
      Stem N at maturity (kg/ha)                              61          -99
      Grain N at maturity (%)                                1.7          -99
      Tops weight at anthesis (kg [dm]/ha)                  3654          -99
      Tops N at anthesis (kg/ha)                              87          -99
      Leaf number per stem at maturity                     20.93          -99
      Emergence day (dap)                                      5          -99


*ENVIRONMENTAL AND STRESS FACTORS

 |-----Development Phase------|--------------------------------------Environment--------------------------------------|-----------------Stress-----------------|
                              |---------------Average--------------|-----Cumulative-----|--------Count of days--------|          (0=Min, 1=Max Stress)         |
                         Time  Temp  Temp  Temp Solar Photop                Evapo    Pot TMIN TMIN TMAX TMAX TMAX RAIN|----Water----|---Nitrogen--|-Phosphorus-|
                         Span   Max   Min  Mean   Rad  [day]    CO2   Rain  Trans     ET   <    <    >    >    >    >   Photo         Photo         Photo
                         days    邂    邂    邂 MJ/m2     hr    ppm     mm     mm     mm  0邂  2邂 30邂 32邂 34邂  0mm  synth Growth  synth Growth  synth Growth
----------------------------------------------------------------------------------------------------------------------------------------------------------------
 Emergence-End Juvenile    10  34.7  20.9  27.8  19.8  24.00  347.2    0.0    3.9   57.7    0    0   10   10    8    0  0.000  0.000  0.002  0.006  0.000  0.000
 End Juvenil-Floral Init    7  35.9  22.3  29.1  21.2  24.00  347.2    0.0    9.8   44.2    0    0    7    7    7    0  0.006  0.142  0.000  0.000  0.000  0.000
 Floral Init-End Lf Grow   32  34.5  22.4  28.5  20.0  21.84  347.3   48.3   96.5  175.2    0    0   32   26   18    9  0.309  0.434  0.000  0.000  0.000  0.000
 End Lf Grth-Beg Grn Fil    8  36.6  24.0  30.3  20.2  14.16  347.4    0.4    6.3   48.6    0    0    8    8    7    1  0.861  0.908  0.000  0.000  0.000  0.000
 Grain Filling Phase       39  30.9  21.6  26.3  18.0   5.17  347.5  323.5  164.5  184.6    0    0   24    9    5   30  0.090  0.095  0.000  0.000  0.000  0.000


 Planting to Harvest      104  33.2  21.9  27.6  19.1  14.83  347.4  374.1  293.2  550.1    0    0   85   64   47   42  0.196  0.248  0.000  0.001  0.000  0.000
----------------------------------------------------------------------------------------------------------------------------------------------------------------


*Resource Productivity
 Growing season length: 104 days 

 Precipitation during growing season       374.1 mm[rain]
   Dry Matter Productivity                  1.37 kg[DM]/m3[rain]          =   13.7 kg[DM]/ha per mm[rain]
   Yield Productivity                       0.35 kg[grain yield]/m3[rain] =    3.5 kg[yield]/ha per mm[rain]

 Evapotranspiration during growing season  293.2 mm[ET]
   Dry Matter Productivity                  1.75 kg[DM]/m3[ET]            =   17.5 kg[DM]/ha per mm[ET]
   Yield Productivity                       0.45 kg[grain yield]/m3[ET]   =    4.5 kg[yield]/ha per mm[ET]

 Transpiration during growing season       179.5 mm[EP]
   Dry Matter Productivity                  2.86 kg[DM]/m3[EP]            =   28.6 kg[DM]/ha per mm[EP]
   Yield Productivity                       0.74 kg[grain yield]/m3[EP]   =    7.4 kg[yield]/ha per mm[EP]

 N applied during growing season            162. kg[N applied]/ha
   Dry Matter Productivity                  31.7 kg[DM]/kg[N applied]
   Yield Productivity                        8.2 kg[yield]/kg[N applied]

 N uptake during growing season              100 kg[N uptake]/ha
   Dry Matter Productivity                  51.4 kg[DM]/kg[N uptake]
   Yield Productivity                       13.2 kg[yield]/kg[N uptake]

--------------------------------------------------------------------------------------------------------------

                     Maize YIELD :     1323 kg/ha    [Dry weight] 

**************************************************************************************************************

*DSSAT Cropping System Model Ver. 4.6.1.000 -release      OCT 02, 2017; 12:56:57
                                                                                
*RUN   3        : P07/24                    MZCER046 ANES1986    3              
 MODEL          : MZCER046 - Maize                                              
 EXPERIMENT     : ANES1986 MZ  Analisis a침os de bajo rendimiento Espinal       
 DATA PATH      : C:\DSSAT46\maize\                                             
 TREATMENT  3   : P07/24                    MZCER046                            
                                                                                
                                                                                
 CROP           : Maize            CULTIVAR : P30F35           ECOTYPE :IB0001  
 STARTING DATE  : JUN 24 1986                                                   
 PLANTING DATE  : JUL 24 1986        PLANTS/m2 :  6.2     ROW SPACING :  80.cm  
 WEATHER        : CNAT   1986                                                   
 SOIL           : CCESPI2017     TEXTURE : SL    -   Suelo Espinal Calibraci    
 SOIL INITIAL C : DEPTH:100cm EXTR. H2O: 83.6mm  NO3:100.0kg/ha  NH4: 72.3kg/ha 
 WATER BALANCE  : RAINFED                                                       
 IRRIGATION     : NOT IRRIGATED                                                 
 NITROGEN BAL.  : SOIL-N & N-UPTAKE SIMULATION; NO N-FIXATION                   
 N-FERTILIZER   :      162 kg/ha IN     6 APPLICATIONS                          
 RESIDUE/MANURE : INITIAL :     0 kg/ha ;       0 kg/ha IN     0 APPLICATIONS   
 ENVIRONM. OPT. : DAYL=    0.00  SRAD=    0.00  TMAX=    0.00  TMIN=    0.00    
                  RAIN=    0.00  CO2 =    0.00  DEW =    0.00  WIND=    0.00    
 SIMULATION OPT : WATER   :Y  NITROGEN:Y  N-FIX:N  PHOSPH :N  PESTS  :N         
                  PHOTO   :C  ET      :R  INFIL:S  HYDROL :R  SOM    :G         
                  CO2 347ppm  NSWIT   :1  EVAP :S  SOIL   :2  STEMP  :D         
 MANAGEMENT OPT : PLANTING:R  IRRIG   :N  FERT :D  RESIDUE:R  HARVEST:M         
                  WEATHER :M  TILLAGE :N                                        
                                                                                
*SUMMARY OF SOIL AND GENETIC INPUT PARAMETERS                                   
                                                                                
   SOIL LOWER UPPER   SAT  EXTR  INIT   ROOT   BULK     pH    NO3    NH4    ORG 
  DEPTH LIMIT LIMIT    SW    SW    SW   DIST   DENS                          C  
   cm   cm3/cm3    cm3/cm3    cm3/cm3         g/cm3         ugN/g  ugN/g     %  
------------------------------------------------------------------------------- 
  0-  5 0.160 0.252 0.376 0.092 0.252   1.00   1.69   6.60   8.90   4.51   0.45 
  5- 15 0.160 0.252 0.376 0.092 0.252   1.00   1.69   6.60   8.90   4.51   0.45 
 15- 30 0.160 0.252 0.376 0.092 0.252   1.00   1.69   6.60   8.90   4.51   0.45 
 30- 53 0.120 0.200 0.440 0.080 0.200   0.27   1.40   7.10   5.60   5.04   0.17 
 53- 77 0.120 0.200 0.440 0.080 0.200   0.27   1.40   7.10   5.60   5.04   0.17 
 77-100 0.120 0.200 0.440 0.080 0.200   0.27   1.40   7.10   5.60   5.04   0.17 
                                                                                
TOT-100  13.2  21.6  42.1   8.4  21.6  <--cm   -  kg/ha-->  100.0   72.3  39475 
SOIL ALBEDO    : 0.09      EVAPORATION LIMIT : 6.00         MIN. FACTOR  : 1.00 
RUNOFF CURVE # :76.00      DRAINAGE RATE     : 0.60         FERT. FACTOR : 1.00 
                                                                                
 Maize      CULTIVAR :CI0001-P30F35             ECOTYPE :IB0001                 
 P1     : 212.00  P2     : 0.3000  P5     : 925.00                              
 G2     : 954.00  G3     :  7.000  PHINT  : 50.000                              


*SIMULATED CROP AND SOIL STATUS AT MAIN DEVELOPMENT STAGES

 RUN NO.     3     P07/24                  

        CROP GROWTH     BIOMASS         LEAF   CROP N     STRESS      STRESS                                           
   DATE  AGE STAGE        kg/ha    LAI   NUM  kg/ha  %   H2O  Nitr Phos1 Phos2  RSTG                                   
 ------  --- ----------   -----  -----  ----  ---  ---  ----  ----  ----  ----  ----                                   
 24 JUN    0 Start Sim        0   0.00   0.0    0  0.0  0.00  0.00  0.00  0.00     7
 24 JUL    0 Sowing           0   0.00   0.0    0  0.0  0.00  0.00  0.00  0.00     8
 25 JUL    1 Germinate        0   0.00   0.0    0  0.0  0.00  0.00  0.00  0.00     9
 29 JUL    5 Emergence       25   0.00   2.1    1  4.4  0.00  0.01  0.00  0.00     1
  8 AUG   15 End Juveni      94   0.20   7.0    3  3.2  0.04  0.00  0.00  0.00     2
 15 AUG   22 Floral Ini     334   0.59  10.0   12  3.6  0.12  0.00  0.00  0.00     3
 16 SEP   54 75% Silkin    3330   1.55  20.6   79  2.4  0.48  0.00  0.00  0.00     4
 24 SEP   62 Beg Gr Fil    3491   1.19  20.6   79  2.3  0.69  0.00  0.00  0.00     5
  3 NOV  102 End Gr Fil    5583   1.09  20.6   69  1.2  0.00  0.00  0.00  0.00     6
  5 NOV  104 Maturity      5583   1.09  20.6   69  1.2  0.00  0.00  0.00  0.00    10
  5 NOV  104 Harvest       5583   1.09  20.6   69  1.2  0.00  0.00  0.00  0.00    10


*MAIN GROWTH AND DEVELOPMENT VARIABLES

@     VARIABLE                                         SIMULATED     MEASURED
      --------                                         ---------     --------
      Anthesis day (dap)                                      54          -99
      Physiological maturity day (dap)                       104          -99
      Yield at harvest maturity (kg [dm]/ha)                2051          -99
      Number at maturity (no/m2)                             749          -99
      Unit wt at maturity (g [dm]/unit)                   0.2739          -99
      Number at maturity (no/unit)                         126.0          -99
      Tops weight at maturity (kg [dm]/ha)                  5583          -99
      By-product produced (stalk) at maturity (kg[dm]/ha    3576          -99
      Leaf area index, maximum                              2.30          -99
      Harvest index at maturity                            0.367          -99
      Grain N at maturity (kg/ha)                             35          -99
      Tops N at maturity (kg/ha)                              69          -99
      Stem N at maturity (kg/ha)                              32          -99
      Grain N at maturity (%)                                1.7          -99
      Tops weight at anthesis (kg [dm]/ha)                  3322          -99
      Tops N at anthesis (kg/ha)                              79          -99
      Leaf number per stem at maturity                     20.58          -99
      Emergence day (dap)                                      5          -99


*ENVIRONMENTAL AND STRESS FACTORS

 |-----Development Phase------|--------------------------------------Environment--------------------------------------|-----------------Stress-----------------|
                              |---------------Average--------------|-----Cumulative-----|--------Count of days--------|          (0=Min, 1=Max Stress)         |
                         Time  Temp  Temp  Temp Solar Photop                Evapo    Pot TMIN TMIN TMAX TMAX TMAX RAIN|----Water----|---Nitrogen--|-Phosphorus-|
                         Span   Max   Min  Mean   Rad  [day]    CO2   Rain  Trans     ET   <    <    >    >    >    >   Photo         Photo         Photo
                         days    邂    邂    邂 MJ/m2     hr    ppm     mm     mm     mm  0邂  2邂 30邂 32邂 34邂  0mm  synth Growth  synth Growth  synth Growth
----------------------------------------------------------------------------------------------------------------------------------------------------------------
 Emergence-End Juvenile    10  35.1  21.7  28.4  19.9  24.00  347.2    0.0    3.8   58.9    0    0   10   10    9    0  0.000  0.037  0.002  0.006  0.000  0.000
 End Juvenil-Floral Init    7  35.7  21.5  28.6  19.2  24.00  347.2    0.0    7.8   40.4    0    0    7    7    6    0  0.043  0.119  0.001  0.002  0.000  0.000
 Floral Init-End Lf Grow   32  34.7  22.7  28.7  20.1  20.39  347.3   48.3   97.0  178.4    0    0   32   26   18    9  0.346  0.452  0.000  0.000  0.000  0.000
 End Lf Grth-Beg Grn Fil    8  35.8  24.3  30.1  20.2  12.43  347.4   21.8   10.8   46.9    0    0    8    8    7    5  0.767  0.804  0.000  0.000  0.000  0.000
 Grain Filling Phase       40  30.4  21.1  25.7  17.8   3.55  347.5  304.3  177.1  184.0    0    0   22    5    1   29  0.000  0.000  0.000  0.000  0.000  0.000


 Planting to Harvest      104  33.1  22.0  27.5  19.1  13.67  347.4  384.6  303.7  546.2    0    0   84   61   45   44  0.168  0.213  0.000  0.001  0.000  0.000
----------------------------------------------------------------------------------------------------------------------------------------------------------------


*Resource Productivity
 Growing season length: 104 days 

 Precipitation during growing season       384.6 mm[rain]
   Dry Matter Productivity                  1.45 kg[DM]/m3[rain]          =   14.5 kg[DM]/ha per mm[rain]
   Yield Productivity                       0.53 kg[grain yield]/m3[rain] =    5.3 kg[yield]/ha per mm[rain]

 Evapotranspiration during growing season  303.7 mm[ET]
   Dry Matter Productivity                  1.84 kg[DM]/m3[ET]            =   18.4 kg[DM]/ha per mm[ET]
   Yield Productivity                       0.68 kg[grain yield]/m3[ET]   =    6.8 kg[yield]/ha per mm[ET]

 Transpiration during growing season       192.5 mm[EP]
   Dry Matter Productivity                  2.90 kg[DM]/m3[EP]            =   29.0 kg[DM]/ha per mm[EP]
   Yield Productivity                       1.07 kg[grain yield]/m3[EP]   =   10.7 kg[yield]/ha per mm[EP]

 N applied during growing season            162. kg[N applied]/ha
   Dry Matter Productivity                  34.5 kg[DM]/kg[N applied]
   Yield Productivity                       12.7 kg[yield]/kg[N applied]

 N uptake during growing season               92 kg[N uptake]/ha
   Dry Matter Productivity                  60.7 kg[DM]/kg[N uptake]
   Yield Productivity                       22.3 kg[yield]/kg[N uptake]

--------------------------------------------------------------------------------------------------------------

                     Maize YIELD :     2051 kg/ha    [Dry weight] 

**************************************************************************************************************

*DSSAT Cropping System Model Ver. 4.6.1.000 -release      OCT 02, 2017; 12:56:57
                                                                                
*RUN   4        : P07/29                    MZCER046 ANES1986    4              
 MODEL          : MZCER046 - Maize                                              
 EXPERIMENT     : ANES1986 MZ  Analisis a침os de bajo rendimiento Espinal       
 DATA PATH      : C:\DSSAT46\maize\                                             
 TREATMENT  4   : P07/29                    MZCER046                            
                                                                                
                                                                                
 CROP           : Maize            CULTIVAR : P30F35           ECOTYPE :IB0001  
 STARTING DATE  : JUN 29 1986                                                   
 PLANTING DATE  : JUL 29 1986        PLANTS/m2 :  6.2     ROW SPACING :  80.cm  
 WEATHER        : CNAT   1986                                                   
 SOIL           : CCESPI2017     TEXTURE : SL    -   Suelo Espinal Calibraci    
 SOIL INITIAL C : DEPTH:100cm EXTR. H2O: 83.6mm  NO3:100.0kg/ha  NH4: 72.3kg/ha 
 WATER BALANCE  : RAINFED                                                       
 IRRIGATION     : NOT IRRIGATED                                                 
 NITROGEN BAL.  : SOIL-N & N-UPTAKE SIMULATION; NO N-FIXATION                   
 N-FERTILIZER   :      162 kg/ha IN     6 APPLICATIONS                          
 RESIDUE/MANURE : INITIAL :     0 kg/ha ;       0 kg/ha IN     0 APPLICATIONS   
 ENVIRONM. OPT. : DAYL=    0.00  SRAD=    0.00  TMAX=    0.00  TMIN=    0.00    
                  RAIN=    0.00  CO2 =    0.00  DEW =    0.00  WIND=    0.00    
 SIMULATION OPT : WATER   :Y  NITROGEN:Y  N-FIX:N  PHOSPH :N  PESTS  :N         
                  PHOTO   :C  ET      :R  INFIL:S  HYDROL :R  SOM    :G         
                  CO2 347ppm  NSWIT   :1  EVAP :S  SOIL   :2  STEMP  :D         
 MANAGEMENT OPT : PLANTING:R  IRRIG   :N  FERT :D  RESIDUE:R  HARVEST:M         
                  WEATHER :M  TILLAGE :N                                        
                                                                                
*SUMMARY OF SOIL AND GENETIC INPUT PARAMETERS                                   
                                                                                
   SOIL LOWER UPPER   SAT  EXTR  INIT   ROOT   BULK     pH    NO3    NH4    ORG 
  DEPTH LIMIT LIMIT    SW    SW    SW   DIST   DENS                          C  
   cm   cm3/cm3    cm3/cm3    cm3/cm3         g/cm3         ugN/g  ugN/g     %  
------------------------------------------------------------------------------- 
  0-  5 0.160 0.252 0.376 0.092 0.252   1.00   1.69   6.60   8.90   4.51   0.45 
  5- 15 0.160 0.252 0.376 0.092 0.252   1.00   1.69   6.60   8.90   4.51   0.45 
 15- 30 0.160 0.252 0.376 0.092 0.252   1.00   1.69   6.60   8.90   4.51   0.45 
 30- 53 0.120 0.200 0.440 0.080 0.200   0.27   1.40   7.10   5.60   5.04   0.17 
 53- 77 0.120 0.200 0.440 0.080 0.200   0.27   1.40   7.10   5.60   5.04   0.17 
 77-100 0.120 0.200 0.440 0.080 0.200   0.27   1.40   7.10   5.60   5.04   0.17 
                                                                                
TOT-100  13.2  21.6  42.1   8.4  21.6  <--cm   -  kg/ha-->  100.0   72.3  39475 
SOIL ALBEDO    : 0.09      EVAPORATION LIMIT : 6.00         MIN. FACTOR  : 1.00 
RUNOFF CURVE # :76.00      DRAINAGE RATE     : 0.60         FERT. FACTOR : 1.00 
                                                                                
 Maize      CULTIVAR :CI0001-P30F35             ECOTYPE :IB0001                 
 P1     : 212.00  P2     : 0.3000  P5     : 925.00                              
 G2     : 954.00  G3     :  7.000  PHINT  : 50.000                              


*SIMULATED CROP AND SOIL STATUS AT MAIN DEVELOPMENT STAGES

 RUN NO.     4     P07/29                  

        CROP GROWTH     BIOMASS         LEAF   CROP N     STRESS      STRESS                                           
   DATE  AGE STAGE        kg/ha    LAI   NUM  kg/ha  %   H2O  Nitr Phos1 Phos2  RSTG                                   
 ------  --- ----------   -----  -----  ----  ---  ---  ----  ----  ----  ----  ----                                   
 29 JUN    0 Start Sim        0   0.00   0.0    0  0.0  0.00  0.00  0.00  0.00     7
 29 JUL    0 Sowing           0   0.00   0.0    0  0.0  0.00  0.00  0.00  0.00     8
 30 JUL    1 Germinate        0   0.00   0.0    0  0.0  0.00  0.00  0.00  0.00     9
  3 AUG    5 Emergence       25   0.00   2.2    1  4.4  0.00  0.01  0.00  0.00     1
 13 AUG   15 End Juveni      99   0.21   7.1    3  3.3  0.03  0.00  0.00  0.00     2
 20 AUG   22 Floral Ini     348   0.62   9.9   13  3.6  0.07  0.00  0.00  0.00     3
 20 SEP   53 75% Silkin    2954   1.39  20.8   72  2.5  0.52  0.00  0.00  0.00     4
 29 SEP   62 Beg Gr Fil    3927   1.28  20.8   72  1.8  0.20  0.00  0.00  0.00     5
  8 NOV  102 End Gr Fil    8133   1.05  20.8  103  1.3  0.00  0.00  0.00  0.00     6
 10 NOV  104 Maturity      8133   1.05  20.8  103  1.3  0.00  0.00  0.00  0.00    10
 10 NOV  104 Harvest       8133   1.05  20.8  103  1.3  0.00  0.00  0.00  0.00    10


*MAIN GROWTH AND DEVELOPMENT VARIABLES

@     VARIABLE                                         SIMULATED     MEASURED
      --------                                         ---------     --------
      Anthesis day (dap)                                      53          -99
      Physiological maturity day (dap)                       104          -99
      Yield at harvest maturity (kg [dm]/ha)                4325          -99
      Number at maturity (no/m2)                            1568          -99
      Unit wt at maturity (g [dm]/unit)                   0.2758          -99
      Number at maturity (no/unit)                         252.9          -99
      Tops weight at maturity (kg [dm]/ha)                  8133          -99
      By-product produced (stalk) at maturity (kg[dm]/ha    3851          -99
      Leaf area index, maximum                              2.09          -99
      Harvest index at maturity                            0.532          -99
      Grain N at maturity (kg/ha)                             75          -99
      Tops N at maturity (kg/ha)                             103          -99
      Stem N at maturity (kg/ha)                              29          -99
      Grain N at maturity (%)                                1.7          -99
      Tops weight at anthesis (kg [dm]/ha)                  2942          -99
      Tops N at anthesis (kg/ha)                              72          -99
      Leaf number per stem at maturity                     20.78          -99
      Emergence day (dap)                                      5          -99


*ENVIRONMENTAL AND STRESS FACTORS

 |-----Development Phase------|--------------------------------------Environment--------------------------------------|-----------------Stress-----------------|
                              |---------------Average--------------|-----Cumulative-----|--------Count of days--------|          (0=Min, 1=Max Stress)         |
                         Time  Temp  Temp  Temp Solar Photop                Evapo    Pot TMIN TMIN TMAX TMAX TMAX RAIN|----Water----|---Nitrogen--|-Phosphorus-|
                         Span   Max   Min  Mean   Rad  [day]    CO2   Rain  Trans     ET   <    <    >    >    >    >   Photo         Photo         Photo
                         days    邂    邂    邂 MJ/m2     hr    ppm     mm     mm     mm  0邂  2邂 30邂 32邂 34邂  0mm  synth Growth  synth Growth  synth Growth
----------------------------------------------------------------------------------------------------------------------------------------------------------------
 Emergence-End Juvenile    10  36.0  22.3  29.2  19.9  24.00  347.2    0.0    3.5   61.5    0    0   10   10   10    0  0.000  0.030  0.002  0.005  0.000  0.000
 End Juvenil-Floral Init    7  33.1  21.5  27.3  17.7  24.00  347.3   19.6   13.1   34.8    0    0    7    4    2    3  0.013  0.073  0.001  0.003  0.000  0.000
 Floral Init-End Lf Grow   31  35.3  23.2  29.2  20.8  18.87  347.3   29.3   91.2  183.8    0    0   31   28   21    8  0.393  0.494  0.000  0.000  0.000  0.000
 End Lf Grth-Beg Grn Fil    9  32.2  22.4  27.3  17.0  10.89  347.4  113.8   28.9   40.4    0    0    7    6    3    7  0.278  0.297  0.000  0.000  0.000  0.000
 Grain Filling Phase       40  30.3  21.2  25.7  17.7   2.28  347.5  233.0  173.9  181.1    0    0   20    3    1   28  0.000  0.000  0.000  0.000  0.000  0.000


 Planting to Harvest      104  32.9  22.0  27.5  18.9  12.52  347.4  395.7  318.8  539.7    0    0   82   56   41   46  0.142  0.181  0.000  0.001  0.000  0.000
----------------------------------------------------------------------------------------------------------------------------------------------------------------


*Resource Productivity
 Growing season length: 104 days 

 Precipitation during growing season       395.7 mm[rain]
   Dry Matter Productivity                  2.06 kg[DM]/m3[rain]          =   20.6 kg[DM]/ha per mm[rain]
   Yield Productivity                       1.09 kg[grain yield]/m3[rain] =   10.9 kg[yield]/ha per mm[rain]

 Evapotranspiration during growing season  318.8 mm[ET]
   Dry Matter Productivity                  2.55 kg[DM]/m3[ET]            =   25.5 kg[DM]/ha per mm[ET]
   Yield Productivity                       1.36 kg[grain yield]/m3[ET]   =   13.6 kg[yield]/ha per mm[ET]

 Transpiration during growing season       201.8 mm[EP]
   Dry Matter Productivity                  4.03 kg[DM]/m3[EP]            =   40.3 kg[DM]/ha per mm[EP]
   Yield Productivity                       2.14 kg[grain yield]/m3[EP]   =   21.4 kg[yield]/ha per mm[EP]

 N applied during growing season            162. kg[N applied]/ha
   Dry Matter Productivity                  50.2 kg[DM]/kg[N applied]
   Yield Productivity                       26.7 kg[yield]/kg[N applied]

 N uptake during growing season              123 kg[N uptake]/ha
   Dry Matter Productivity                  66.1 kg[DM]/kg[N uptake]
   Yield Productivity                       35.2 kg[yield]/kg[N uptake]

--------------------------------------------------------------------------------------------------------------

                     Maize YIELD :     4325 kg/ha    [Dry weight] 

**************************************************************************************************************

*DSSAT Cropping System Model Ver. 4.6.1.000 -release      OCT 02, 2017; 12:56:57
                                                                                
*RUN   5        : P08/03                    MZCER046 ANES1986    5              
 MODEL          : MZCER046 - Maize                                              
 EXPERIMENT     : ANES1986 MZ  Analisis a침os de bajo rendimiento Espinal       
 DATA PATH      : C:\DSSAT46\maize\                                             
 TREATMENT  5   : P08/03                    MZCER046                            
                                                                                
                                                                                
 CROP           : Maize            CULTIVAR : P30F35           ECOTYPE :IB0001  
 STARTING DATE  : JUL  4 1986                                                   
 PLANTING DATE  : AUG  3 1986        PLANTS/m2 :  6.2     ROW SPACING :  80.cm  
 WEATHER        : CNAT   1986                                                   
 SOIL           : CCESPI2017     TEXTURE : SL    -   Suelo Espinal Calibraci    
 SOIL INITIAL C : DEPTH:100cm EXTR. H2O: 83.6mm  NO3:100.0kg/ha  NH4: 72.3kg/ha 
 WATER BALANCE  : RAINFED                                                       
 IRRIGATION     : NOT IRRIGATED                                                 
 NITROGEN BAL.  : SOIL-N & N-UPTAKE SIMULATION; NO N-FIXATION                   
 N-FERTILIZER   :      162 kg/ha IN     6 APPLICATIONS                          
 RESIDUE/MANURE : INITIAL :     0 kg/ha ;       0 kg/ha IN     0 APPLICATIONS   
 ENVIRONM. OPT. : DAYL=    0.00  SRAD=    0.00  TMAX=    0.00  TMIN=    0.00    
                  RAIN=    0.00  CO2 =    0.00  DEW =    0.00  WIND=    0.00    
 SIMULATION OPT : WATER   :Y  NITROGEN:Y  N-FIX:N  PHOSPH :N  PESTS  :N         
                  PHOTO   :C  ET      :R  INFIL:S  HYDROL :R  SOM    :G         
                  CO2 347ppm  NSWIT   :1  EVAP :S  SOIL   :2  STEMP  :D         
 MANAGEMENT OPT : PLANTING:R  IRRIG   :N  FERT :D  RESIDUE:R  HARVEST:M         
                  WEATHER :M  TILLAGE :N                                        
                                                                                
*SUMMARY OF SOIL AND GENETIC INPUT PARAMETERS                                   
                                                                                
   SOIL LOWER UPPER   SAT  EXTR  INIT   ROOT   BULK     pH    NO3    NH4    ORG 
  DEPTH LIMIT LIMIT    SW    SW    SW   DIST   DENS                          C  
   cm   cm3/cm3    cm3/cm3    cm3/cm3         g/cm3         ugN/g  ugN/g     %  
------------------------------------------------------------------------------- 
  0-  5 0.160 0.252 0.376 0.092 0.252   1.00   1.69   6.60   8.90   4.51   0.45 
  5- 15 0.160 0.252 0.376 0.092 0.252   1.00   1.69   6.60   8.90   4.51   0.45 
 15- 30 0.160 0.252 0.376 0.092 0.252   1.00   1.69   6.60   8.90   4.51   0.45 
 30- 53 0.120 0.200 0.440 0.080 0.200   0.27   1.40   7.10   5.60   5.04   0.17 
 53- 77 0.120 0.200 0.440 0.080 0.200   0.27   1.40   7.10   5.60   5.04   0.17 
 77-100 0.120 0.200 0.440 0.080 0.200   0.27   1.40   7.10   5.60   5.04   0.17 
                                                                                
TOT-100  13.2  21.6  42.1   8.4  21.6  <--cm   -  kg/ha-->  100.0   72.3  39475 
SOIL ALBEDO    : 0.09      EVAPORATION LIMIT : 6.00         MIN. FACTOR  : 1.00 
RUNOFF CURVE # :76.00      DRAINAGE RATE     : 0.60         FERT. FACTOR : 1.00 
                                                                                
 Maize      CULTIVAR :CI0001-P30F35             ECOTYPE :IB0001                 
 P1     : 212.00  P2     : 0.3000  P5     : 925.00                              
 G2     : 954.00  G3     :  7.000  PHINT  : 50.000                              


*SIMULATED CROP AND SOIL STATUS AT MAIN DEVELOPMENT STAGES

 RUN NO.     5     P08/03                  

        CROP GROWTH     BIOMASS         LEAF   CROP N     STRESS      STRESS                                           
   DATE  AGE STAGE        kg/ha    LAI   NUM  kg/ha  %   H2O  Nitr Phos1 Phos2  RSTG                                   
 ------  --- ----------   -----  -----  ----  ---  ---  ----  ----  ----  ----  ----                                   
  4 JUL    0 Start Sim        0   0.00   0.0    0  0.0  0.00  0.00  0.00  0.00     7
  3 AUG    0 Sowing           0   0.00   0.0    0  0.0  0.00  0.00  0.00  0.00     8
  4 AUG    1 Germinate        0   0.00   0.0    0  0.0  0.00  0.00  0.00  0.00     9
  8 AUG    5 Emergence       25   0.00   2.1    1  4.4  0.00  0.01  0.00  0.00     1
 18 AUG   15 End Juveni      87   0.19   6.9    3  3.3  0.02  0.00  0.00  0.00     2
 24 AUG   21 Floral Ini     302   0.55   9.4   11  3.6  0.00  0.00  0.00  0.00     3
 23 SEP   51 75% Silkin    2876   1.34  19.6   63  2.2  0.49  0.00  0.00  0.00     4
  2 OCT   60 Beg Gr Fil    4313   1.34  19.6   63  1.5  0.00  0.00  0.00  0.00     5
 11 NOV  100 End Gr Fil   10200   0.94  19.6  132  1.3  0.00  0.00  0.00  0.00     6
 13 NOV  102 Maturity     10200   0.94  19.6  132  1.3  0.00  0.00  0.00  0.00    10
 13 NOV  102 Harvest      10200   0.94  19.6  132  1.3  0.00  0.00  0.00  0.00    10


*MAIN GROWTH AND DEVELOPMENT VARIABLES

@     VARIABLE                                         SIMULATED     MEASURED
      --------                                         ---------     --------
      Anthesis day (dap)                                      51          -99
      Physiological maturity day (dap)                       102          -99
      Yield at harvest maturity (kg [dm]/ha)                6040          -99
      Number at maturity (no/m2)                            2186          -99
      Unit wt at maturity (g [dm]/unit)                   0.2763          -99
      Number at maturity (no/unit)                         352.5          -99
      Tops weight at maturity (kg [dm]/ha)                 10200          -99
      By-product produced (stalk) at maturity (kg[dm]/ha    4198          -99
      Leaf area index, maximum                              1.85          -99
      Harvest index at maturity                            0.592          -99
      Grain N at maturity (kg/ha)                            104          -99
      Tops N at maturity (kg/ha)                             132          -99
      Stem N at maturity (kg/ha)                              27          -99
      Grain N at maturity (%)                                1.7          -99
      Tops weight at anthesis (kg [dm]/ha)                  2691          -99
      Tops N at anthesis (kg/ha)                              63          -99
      Leaf number per stem at maturity                     19.56          -99
      Emergence day (dap)                                      5          -99


*ENVIRONMENTAL AND STRESS FACTORS

 |-----Development Phase------|--------------------------------------Environment--------------------------------------|-----------------Stress-----------------|
                              |---------------Average--------------|-----Cumulative-----|--------Count of days--------|          (0=Min, 1=Max Stress)         |
                         Time  Temp  Temp  Temp Solar Photop                Evapo    Pot TMIN TMIN TMAX TMAX TMAX RAIN|----Water----|---Nitrogen--|-Phosphorus-|
                         Span   Max   Min  Mean   Rad  [day]    CO2   Rain  Trans     ET   <    <    >    >    >    >   Photo         Photo         Photo
                         days    邂    邂    邂 MJ/m2     hr    ppm     mm     mm     mm  0邂  2邂 30邂 32邂 34邂  0mm  synth Growth  synth Growth  synth Growth
----------------------------------------------------------------------------------------------------------------------------------------------------------------
 Emergence-End Juvenile    10  34.7  21.6  28.1  17.8  24.00  347.2   19.1    3.8   53.7    0    0   10    8    6    2  0.000  0.025  0.002  0.005  0.000  0.000
 End Juvenil-Floral Init    6  33.3  22.2  27.8  20.4  24.00  347.3   11.2   23.5   35.7    0    0    6    4    2    3  0.000  0.000  0.001  0.002  0.000  0.000
 Floral Init-End Lf Grow   30  35.6  23.3  29.5  20.7  17.49  347.4   38.8   80.5  178.4    0    0   30   28   23    8  0.395  0.487  0.000  0.000  0.000  0.000
 End Lf Grth-Beg Grn Fil    9  31.0  21.3  26.1  17.5   9.84  347.4  108.4   40.7   40.7    0    0    6    4    1    7  0.000  0.000  0.000  0.000  0.000  0.000
 Grain Filling Phase       40  30.3  21.4  25.8  17.6   1.62  347.5  218.2  169.6  180.0    0    0   21    2    0   26  0.000  0.000  0.000  0.000  0.000  0.000


 Planting to Harvest      102  32.8  22.1  27.5  18.8  11.59  347.4  395.7  325.6  530.1    0    0   80   53   37   46  0.116  0.146  0.000  0.001  0.000  0.000
----------------------------------------------------------------------------------------------------------------------------------------------------------------


*Resource Productivity
 Growing season length: 102 days 

 Precipitation during growing season       395.7 mm[rain]
   Dry Matter Productivity                  2.58 kg[DM]/m3[rain]          =   25.8 kg[DM]/ha per mm[rain]
   Yield Productivity                       1.53 kg[grain yield]/m3[rain] =   15.3 kg[yield]/ha per mm[rain]

 Evapotranspiration during growing season  325.6 mm[ET]
   Dry Matter Productivity                  3.13 kg[DM]/m3[ET]            =   31.3 kg[DM]/ha per mm[ET]
   Yield Productivity                       1.85 kg[grain yield]/m3[ET]   =   18.5 kg[yield]/ha per mm[ET]

 Transpiration during growing season       203.8 mm[EP]
   Dry Matter Productivity                  5.00 kg[DM]/m3[EP]            =   50.0 kg[DM]/ha per mm[EP]
   Yield Productivity                       2.96 kg[grain yield]/m3[EP]   =   29.6 kg[yield]/ha per mm[EP]

 N applied during growing season            162. kg[N applied]/ha
   Dry Matter Productivity                  63.0 kg[DM]/kg[N applied]
   Yield Productivity                       37.3 kg[yield]/kg[N applied]

 N uptake during growing season              147 kg[N uptake]/ha
   Dry Matter Productivity                  69.4 kg[DM]/kg[N uptake]
   Yield Productivity                       41.1 kg[yield]/kg[N uptake]

--------------------------------------------------------------------------------------------------------------

                     Maize YIELD :     6040 kg/ha    [Dry weight] 

**************************************************************************************************************

*DSSAT Cropping System Model Ver. 4.6.1.000 -release      OCT 02, 2017; 12:56:57
                                                                                
*RUN   6        : P08/08                    MZCER046 ANES1986    6              
 MODEL          : MZCER046 - Maize                                              
 EXPERIMENT     : ANES1986 MZ  Analisis a침os de bajo rendimiento Espinal       
 DATA PATH      : C:\DSSAT46\maize\                                             
 TREATMENT  6   : P08/08                    MZCER046                            
                                                                                
                                                                                
 CROP           : Maize            CULTIVAR : P30F35           ECOTYPE :IB0001  
 STARTING DATE  : JUL  9 1986                                                   
 PLANTING DATE  : AUG  8 1986        PLANTS/m2 :  6.2     ROW SPACING :  80.cm  
 WEATHER        : CNAT   1986                                                   
 SOIL           : CCESPI2017     TEXTURE : SL    -   Suelo Espinal Calibraci    
 SOIL INITIAL C : DEPTH:100cm EXTR. H2O: 83.6mm  NO3:100.0kg/ha  NH4: 72.3kg/ha 
 WATER BALANCE  : RAINFED                                                       
 IRRIGATION     : NOT IRRIGATED                                                 
 NITROGEN BAL.  : SOIL-N & N-UPTAKE SIMULATION; NO N-FIXATION                   
 N-FERTILIZER   :      162 kg/ha IN     6 APPLICATIONS                          
 RESIDUE/MANURE : INITIAL :     0 kg/ha ;       0 kg/ha IN     0 APPLICATIONS   
 ENVIRONM. OPT. : DAYL=    0.00  SRAD=    0.00  TMAX=    0.00  TMIN=    0.00    
                  RAIN=    0.00  CO2 =    0.00  DEW =    0.00  WIND=    0.00    
 SIMULATION OPT : WATER   :Y  NITROGEN:Y  N-FIX:N  PHOSPH :N  PESTS  :N         
                  PHOTO   :C  ET      :R  INFIL:S  HYDROL :R  SOM    :G         
                  CO2 347ppm  NSWIT   :1  EVAP :S  SOIL   :2  STEMP  :D         
 MANAGEMENT OPT : PLANTING:R  IRRIG   :N  FERT :D  RESIDUE:R  HARVEST:M         
                  WEATHER :M  TILLAGE :N                                        
                                                                                
*SUMMARY OF SOIL AND GENETIC INPUT PARAMETERS                                   
                                                                                
   SOIL LOWER UPPER   SAT  EXTR  INIT   ROOT   BULK     pH    NO3    NH4    ORG 
  DEPTH LIMIT LIMIT    SW    SW    SW   DIST   DENS                          C  
   cm   cm3/cm3    cm3/cm3    cm3/cm3         g/cm3         ugN/g  ugN/g     %  
------------------------------------------------------------------------------- 
  0-  5 0.160 0.252 0.376 0.092 0.252   1.00   1.69   6.60   8.90   4.51   0.45 
  5- 15 0.160 0.252 0.376 0.092 0.252   1.00   1.69   6.60   8.90   4.51   0.45 
 15- 30 0.160 0.252 0.376 0.092 0.252   1.00   1.69   6.60   8.90   4.51   0.45 
 30- 53 0.120 0.200 0.440 0.080 0.200   0.27   1.40   7.10   5.60   5.04   0.17 
 53- 77 0.120 0.200 0.440 0.080 0.200   0.27   1.40   7.10   5.60   5.04   0.17 
 77-100 0.120 0.200 0.440 0.080 0.200   0.27   1.40   7.10   5.60   5.04   0.17 
                                                                                
TOT-100  13.2  21.6  42.1   8.4  21.6  <--cm   -  kg/ha-->  100.0   72.3  39475 
SOIL ALBEDO    : 0.09      EVAPORATION LIMIT : 6.00         MIN. FACTOR  : 1.00 
RUNOFF CURVE # :76.00      DRAINAGE RATE     : 0.60         FERT. FACTOR : 1.00 
                                                                                
 Maize      CULTIVAR :CI0001-P30F35             ECOTYPE :IB0001                 
 P1     : 212.00  P2     : 0.3000  P5     : 925.00                              
 G2     : 954.00  G3     :  7.000  PHINT  : 50.000                              


*SIMULATED CROP AND SOIL STATUS AT MAIN DEVELOPMENT STAGES

 RUN NO.     6     P08/08                  

        CROP GROWTH     BIOMASS         LEAF   CROP N     STRESS      STRESS                                           
   DATE  AGE STAGE        kg/ha    LAI   NUM  kg/ha  %   H2O  Nitr Phos1 Phos2  RSTG                                   
 ------  --- ----------   -----  -----  ----  ---  ---  ----  ----  ----  ----  ----                                   
  9 JUL    0 Start Sim        0   0.00   0.0    0  0.0  0.00  0.00  0.00  0.00     7
  8 AUG    0 Sowing           0   0.00   0.0    0  0.0  0.00  0.00  0.00  0.00     8
  9 AUG    1 Germinate        0   0.00   0.0    0  0.0  0.00  0.00  0.00  0.00     9
 13 AUG    5 Emergence       25   0.00   2.1    1  4.4  0.00  0.01  0.00  0.00     1
 23 AUG   15 End Juveni      89   0.19   6.8    3  3.2  0.00  0.00  0.00  0.00     2
 29 AUG   21 Floral Ini     313   0.57   9.4   11  3.6  0.00  0.00  0.00  0.00     3
 28 SEP   51 75% Silkin    3119   1.52  19.6   64  2.0  0.41  0.00  0.00  0.00     4
  8 OCT   61 Beg Gr Fil    5001   1.52  19.6   66  1.3  0.00  0.00  0.00  0.00     5
 16 NOV  100 End Gr Fil   11179   0.92  19.6  140  1.2  0.00  0.00  0.00  0.00     6
 18 NOV  102 Maturity     11179   0.92  19.6  140  1.2  0.00  0.00  0.00  0.00    10
 18 NOV  102 Harvest      11179   0.92  19.6  140  1.2  0.00  0.00  0.00  0.00    10


*MAIN GROWTH AND DEVELOPMENT VARIABLES

@     VARIABLE                                         SIMULATED     MEASURED
      --------                                         ---------     --------
      Anthesis day (dap)                                      51          -99
      Physiological maturity day (dap)                       102          -99
      Yield at harvest maturity (kg [dm]/ha)                6346          -99
      Number at maturity (no/m2)                            2385          -99
      Unit wt at maturity (g [dm]/unit)                   0.2660          -99
      Number at maturity (no/unit)                         384.7          -99
      Tops weight at maturity (kg [dm]/ha)                 11179          -99
      By-product produced (stalk) at maturity (kg[dm]/ha    4871          -99
      Leaf area index, maximum                              1.65          -99
      Harvest index at maturity                            0.568          -99
      Grain N at maturity (kg/ha)                            110          -99
      Tops N at maturity (kg/ha)                             140          -99
      Stem N at maturity (kg/ha)                              30          -99
      Grain N at maturity (%)                                1.7          -99
      Tops weight at anthesis (kg [dm]/ha)                  2980          -99
      Tops N at anthesis (kg/ha)                              61          -99
      Leaf number per stem at maturity                     19.64          -99
      Emergence day (dap)                                      5          -99


*ENVIRONMENTAL AND STRESS FACTORS

 |-----Development Phase------|--------------------------------------Environment--------------------------------------|-----------------Stress-----------------|
                              |---------------Average--------------|-----Cumulative-----|--------Count of days--------|          (0=Min, 1=Max Stress)         |
                         Time  Temp  Temp  Temp Solar Photop                Evapo    Pot TMIN TMIN TMAX TMAX TMAX RAIN|----Water----|---Nitrogen--|-Phosphorus-|
                         Span   Max   Min  Mean   Rad  [day]    CO2   Rain  Trans     ET   <    <    >    >    >    >   Photo         Photo         Photo
                         days    邂    邂    邂 MJ/m2     hr    ppm     mm     mm     mm  0邂  2邂 30邂 32邂 34邂  0mm  synth Growth  synth Growth  synth Growth
----------------------------------------------------------------------------------------------------------------------------------------------------------------
 Emergence-End Juvenile    10  32.9  21.8  27.3  17.8  24.00  347.3   30.3   20.5   51.7    0    0   10    6    2    5  0.000  0.000  0.002  0.005  0.000  0.000
 End Juvenil-Floral Init    6  35.1  22.4  28.7  23.0  24.00  347.3    7.4   16.8   41.8    0    0    6    6    4    2  0.000  0.000  0.000  0.001  0.000  0.000
 Floral Init-End Lf Grow   30  35.0  23.2  29.1  19.8  15.25  347.4  107.6   85.3  170.4    0    0   29   26   20   10  0.319  0.411  0.000  0.000  0.000  0.000
 End Lf Grth-Beg Grn Fil   10  30.5  20.9  25.7  17.9   7.77  347.4  115.3   45.5   45.5    0    0    6    2    1    8  0.000  0.000  0.000  0.000  0.000  0.000
 Grain Filling Phase       39  30.6  21.6  26.1  17.7   0.59  347.6  135.1  161.1  176.1    0    0   22    5    0   21  0.000  0.000  0.000  0.000  0.000  0.000


 Planting to Harvest      102  32.7  22.1  27.4  18.8  10.41  347.4  395.7  337.0  528.8    0    0   80   52   33   46  0.094  0.121  0.000  0.001  0.000  0.000
----------------------------------------------------------------------------------------------------------------------------------------------------------------


*Resource Productivity
 Growing season length: 102 days 

 Precipitation during growing season       395.7 mm[rain]
   Dry Matter Productivity                  2.83 kg[DM]/m3[rain]          =   28.3 kg[DM]/ha per mm[rain]
   Yield Productivity                       1.60 kg[grain yield]/m3[rain] =   16.0 kg[yield]/ha per mm[rain]

 Evapotranspiration during growing season  337.0 mm[ET]
   Dry Matter Productivity                  3.32 kg[DM]/m3[ET]            =   33.2 kg[DM]/ha per mm[ET]
   Yield Productivity                       1.88 kg[grain yield]/m3[ET]   =   18.8 kg[yield]/ha per mm[ET]

 Transpiration during growing season       216.9 mm[EP]
   Dry Matter Productivity                  5.15 kg[DM]/m3[EP]            =   51.5 kg[DM]/ha per mm[EP]
   Yield Productivity                       2.93 kg[grain yield]/m3[EP]   =   29.3 kg[yield]/ha per mm[EP]

 N applied during growing season            162. kg[N applied]/ha
   Dry Matter Productivity                  69.0 kg[DM]/kg[N applied]
   Yield Productivity                       39.2 kg[yield]/kg[N applied]

 N uptake during growing season              155 kg[N uptake]/ha
   Dry Matter Productivity                  72.1 kg[DM]/kg[N uptake]
   Yield Productivity                       40.9 kg[yield]/kg[N uptake]

--------------------------------------------------------------------------------------------------------------

                     Maize YIELD :     6346 kg/ha    [Dry weight] 

**************************************************************************************************************

*DSSAT Cropping System Model Ver. 4.6.1.000 -release      OCT 02, 2017; 12:56:58
                                                                                
*RUN   7        : P08/13                    MZCER046 ANES1986    7              
 MODEL          : MZCER046 - Maize                                              
 EXPERIMENT     : ANES1986 MZ  Analisis a침os de bajo rendimiento Espinal       
 DATA PATH      : C:\DSSAT46\maize\                                             
 TREATMENT  7   : P08/13                    MZCER046                            
                                                                                
                                                                                
 CROP           : Maize            CULTIVAR : P30F35           ECOTYPE :IB0001  
 STARTING DATE  : JUL 14 1986                                                   
 PLANTING DATE  : AUG 13 1986        PLANTS/m2 :  6.2     ROW SPACING :  80.cm  
 WEATHER        : CNAT   1986                                                   
 SOIL           : CCESPI2017     TEXTURE : SL    -   Suelo Espinal Calibraci    
 SOIL INITIAL C : DEPTH:100cm EXTR. H2O: 83.6mm  NO3:100.0kg/ha  NH4: 72.3kg/ha 
 WATER BALANCE  : RAINFED                                                       
 IRRIGATION     : NOT IRRIGATED                                                 
 NITROGEN BAL.  : SOIL-N & N-UPTAKE SIMULATION; NO N-FIXATION                   
 N-FERTILIZER   :      162 kg/ha IN     6 APPLICATIONS                          
 RESIDUE/MANURE : INITIAL :     0 kg/ha ;       0 kg/ha IN     0 APPLICATIONS   
 ENVIRONM. OPT. : DAYL=    0.00  SRAD=    0.00  TMAX=    0.00  TMIN=    0.00    
                  RAIN=    0.00  CO2 =    0.00  DEW =    0.00  WIND=    0.00    
 SIMULATION OPT : WATER   :Y  NITROGEN:Y  N-FIX:N  PHOSPH :N  PESTS  :N         
                  PHOTO   :C  ET      :R  INFIL:S  HYDROL :R  SOM    :G         
                  CO2 347ppm  NSWIT   :1  EVAP :S  SOIL   :2  STEMP  :D         
 MANAGEMENT OPT : PLANTING:R  IRRIG   :N  FERT :D  RESIDUE:R  HARVEST:M         
                  WEATHER :M  TILLAGE :N                                        
                                                                                
*SUMMARY OF SOIL AND GENETIC INPUT PARAMETERS                                   
                                                                                
   SOIL LOWER UPPER   SAT  EXTR  INIT   ROOT   BULK     pH    NO3    NH4    ORG 
  DEPTH LIMIT LIMIT    SW    SW    SW   DIST   DENS                          C  
   cm   cm3/cm3    cm3/cm3    cm3/cm3         g/cm3         ugN/g  ugN/g     %  
------------------------------------------------------------------------------- 
  0-  5 0.160 0.252 0.376 0.092 0.252   1.00   1.69   6.60   8.90   4.51   0.45 
  5- 15 0.160 0.252 0.376 0.092 0.252   1.00   1.69   6.60   8.90   4.51   0.45 
 15- 30 0.160 0.252 0.376 0.092 0.252   1.00   1.69   6.60   8.90   4.51   0.45 
 30- 53 0.120 0.200 0.440 0.080 0.200   0.27   1.40   7.10   5.60   5.04   0.17 
 53- 77 0.120 0.200 0.440 0.080 0.200   0.27   1.40   7.10   5.60   5.04   0.17 
 77-100 0.120 0.200 0.440 0.080 0.200   0.27   1.40   7.10   5.60   5.04   0.17 
                                                                                
TOT-100  13.2  21.6  42.1   8.4  21.6  <--cm   -  kg/ha-->  100.0   72.3  39475 
SOIL ALBEDO    : 0.09      EVAPORATION LIMIT : 6.00         MIN. FACTOR  : 1.00 
RUNOFF CURVE # :76.00      DRAINAGE RATE     : 0.60         FERT. FACTOR : 1.00 
                                                                                
 Maize      CULTIVAR :CI0001-P30F35             ECOTYPE :IB0001                 
 P1     : 212.00  P2     : 0.3000  P5     : 925.00                              
 G2     : 954.00  G3     :  7.000  PHINT  : 50.000                              


*SIMULATED CROP AND SOIL STATUS AT MAIN DEVELOPMENT STAGES

 RUN NO.     7     P08/13                  

        CROP GROWTH     BIOMASS         LEAF   CROP N     STRESS      STRESS                                           
   DATE  AGE STAGE        kg/ha    LAI   NUM  kg/ha  %   H2O  Nitr Phos1 Phos2  RSTG                                   
 ------  --- ----------   -----  -----  ----  ---  ---  ----  ----  ----  ----  ----                                   
 14 JUL    0 Start Sim        0   0.00   0.0    0  0.0  0.00  0.00  0.00  0.00     7
 13 AUG    0 Sowing           0   0.00   0.0    0  0.0  0.00  0.00  0.00  0.00     8
 14 AUG    1 Germinate        0   0.00   0.0    0  0.0  0.00  0.00  0.00  0.00     9
 18 AUG    5 Emergence       25   0.00   2.1    1  4.4  0.00  0.01  0.00  0.00     1
 28 AUG   15 End Juveni      98   0.21   6.9    3  3.2  0.00  0.00  0.00  0.00     2
  2 SEP   20 Floral Ini     278   0.52   9.1   10  3.6  0.00  0.00  0.00  0.00     3
  2 OCT   50 75% Silkin    3679   1.75  18.9   72  1.9  0.32  0.00  0.00  0.00     4
 11 OCT   59 Beg Gr Fil    5523   1.75  18.9   72  1.3  0.00  0.00  0.00  0.00     5
 19 NOV   98 End Gr Fil   12188   0.91  18.9  151  1.2  0.00  0.00  0.00  0.00     6
 21 NOV  100 Maturity     12188   0.91  18.9  151  1.2  0.00  0.00  0.00  0.00    10
 21 NOV  100 Harvest      12188   0.91  18.9  151  1.2  0.00  0.00  0.00  0.00    10


*MAIN GROWTH AND DEVELOPMENT VARIABLES

@     VARIABLE                                         SIMULATED     MEASURED
      --------                                         ---------     --------
      Anthesis day (dap)                                      50          -99
      Physiological maturity day (dap)                       100          -99
      Yield at harvest maturity (kg [dm]/ha)                6835          -99
      Number at maturity (no/m2)                            2599          -99
      Unit wt at maturity (g [dm]/unit)                   0.2630          -99
      Number at maturity (no/unit)                         419.1          -99
      Tops weight at maturity (kg [dm]/ha)                 12188          -99
      By-product produced (stalk) at maturity (kg[dm]/ha    5390          -99
      Leaf area index, maximum                              1.75          -99
      Harvest index at maturity                            0.561          -99
      Grain N at maturity (kg/ha)                            118          -99
      Tops N at maturity (kg/ha)                             151          -99
      Stem N at maturity (kg/ha)                              33          -99
      Grain N at maturity (%)                                1.7          -99
      Tops weight at anthesis (kg [dm]/ha)                  3510          -99
      Tops N at anthesis (kg/ha)                              72          -99
      Leaf number per stem at maturity                     18.91          -99
      Emergence day (dap)                                      5          -99


*ENVIRONMENTAL AND STRESS FACTORS

 |-----Development Phase------|--------------------------------------Environment--------------------------------------|-----------------Stress-----------------|
                              |---------------Average--------------|-----Cumulative-----|--------Count of days--------|          (0=Min, 1=Max Stress)         |
                         Time  Temp  Temp  Temp Solar Photop                Evapo    Pot TMIN TMIN TMAX TMAX TMAX RAIN|----Water----|---Nitrogen--|-Phosphorus-|
                         Span   Max   Min  Mean   Rad  [day]    CO2   Rain  Trans     ET   <    <    >    >    >    >   Photo         Photo         Photo
                         days    邂    邂    邂 MJ/m2     hr    ppm     mm     mm     mm  0邂  2邂 30邂 32邂 34邂  0mm  synth Growth  synth Growth  synth Growth
----------------------------------------------------------------------------------------------------------------------------------------------------------------
 Emergence-End Juvenile    10  33.7  22.1  27.9  21.3  24.00  347.3   18.6   28.6   64.1    0    0   10    8    4    5  0.000  0.000  0.003  0.006  0.000  0.000
 End Juvenil-Floral Init    5  35.1  23.7  29.4  21.3  21.91  347.3    8.4    9.4   32.3    0    0    5    4    4    1  0.000  0.000  0.000  0.001  0.000  0.000
 Floral Init-End Lf Grow   30  34.5  22.8  28.6  19.3  13.59  347.4  131.4   94.7  166.0    0    0   27   24   18   12  0.234  0.325  0.000  0.000  0.000  0.000
 End Lf Grth-Beg Grn Fil    9  30.4  21.2  25.8  18.2   6.28  347.4   83.9   41.2   41.2    0    0    6    1    0    7  0.000  0.000  0.000  0.000  0.000  0.000
 Grain Filling Phase       39  30.8  21.8  26.3  17.9   0.21  347.6  136.3  160.4  177.3    0    0   23    7    1   20  0.000  0.000  0.000  0.000  0.000  0.000


 Planting to Harvest      100  32.5  22.1  27.3  18.8   9.42  347.5  397.7  342.2  515.3    0    0   78   48   28   47  0.070  0.097  0.000  0.001  0.000  0.000
----------------------------------------------------------------------------------------------------------------------------------------------------------------


*Resource Productivity
 Growing season length: 100 days 

 Precipitation during growing season       397.7 mm[rain]
   Dry Matter Productivity                  3.06 kg[DM]/m3[rain]          =   30.6 kg[DM]/ha per mm[rain]
   Yield Productivity                       1.72 kg[grain yield]/m3[rain] =   17.2 kg[yield]/ha per mm[rain]

 Evapotranspiration during growing season  342.2 mm[ET]
   Dry Matter Productivity                  3.56 kg[DM]/m3[ET]            =   35.6 kg[DM]/ha per mm[ET]
   Yield Productivity                       2.00 kg[grain yield]/m3[ET]   =   20.0 kg[yield]/ha per mm[ET]

 Transpiration during growing season       225.8 mm[EP]
   Dry Matter Productivity                  5.40 kg[DM]/m3[EP]            =   54.0 kg[DM]/ha per mm[EP]
   Yield Productivity                       3.03 kg[grain yield]/m3[EP]   =   30.3 kg[yield]/ha per mm[EP]

 N applied during growing season            162. kg[N applied]/ha
   Dry Matter Productivity                  75.2 kg[DM]/kg[N applied]
   Yield Productivity                       42.2 kg[yield]/kg[N applied]

 N uptake during growing season              165 kg[N uptake]/ha
   Dry Matter Productivity                  73.9 kg[DM]/kg[N uptake]
   Yield Productivity                       41.4 kg[yield]/kg[N uptake]

--------------------------------------------------------------------------------------------------------------

                     Maize YIELD :     6835 kg/ha    [Dry weight] 

**************************************************************************************************************

*DSSAT Cropping System Model Ver. 4.6.1.000 -release      OCT 02, 2017; 12:56:58
                                                                                
*RUN   8        : P08/18                    MZCER046 ANES1986    8              
 MODEL          : MZCER046 - Maize                                              
 EXPERIMENT     : ANES1986 MZ  Analisis a침os de bajo rendimiento Espinal       
 DATA PATH      : C:\DSSAT46\maize\                                             
 TREATMENT  8   : P08/18                    MZCER046                            
                                                                                
                                                                                
 CROP           : Maize            CULTIVAR : P30F35           ECOTYPE :IB0001  
 STARTING DATE  : JUL 19 1986                                                   
 PLANTING DATE  : AUG 18 1986        PLANTS/m2 :  6.2     ROW SPACING :  80.cm  
 WEATHER        : CNAT   1986                                                   
 SOIL           : CCESPI2017     TEXTURE : SL    -   Suelo Espinal Calibraci    
 SOIL INITIAL C : DEPTH:100cm EXTR. H2O: 83.6mm  NO3:100.0kg/ha  NH4: 72.3kg/ha 
 WATER BALANCE  : RAINFED                                                       
 IRRIGATION     : NOT IRRIGATED                                                 
 NITROGEN BAL.  : SOIL-N & N-UPTAKE SIMULATION; NO N-FIXATION                   
 N-FERTILIZER   :      162 kg/ha IN     6 APPLICATIONS                          
 RESIDUE/MANURE : INITIAL :     0 kg/ha ;       0 kg/ha IN     0 APPLICATIONS   
 ENVIRONM. OPT. : DAYL=    0.00  SRAD=    0.00  TMAX=    0.00  TMIN=    0.00    
                  RAIN=    0.00  CO2 =    0.00  DEW =    0.00  WIND=    0.00    
 SIMULATION OPT : WATER   :Y  NITROGEN:Y  N-FIX:N  PHOSPH :N  PESTS  :N         
                  PHOTO   :C  ET      :R  INFIL:S  HYDROL :R  SOM    :G         
                  CO2 347ppm  NSWIT   :1  EVAP :S  SOIL   :2  STEMP  :D         
 MANAGEMENT OPT : PLANTING:R  IRRIG   :N  FERT :D  RESIDUE:R  HARVEST:M         
                  WEATHER :M  TILLAGE :N                                        
                                                                                
*SUMMARY OF SOIL AND GENETIC INPUT PARAMETERS                                   
                                                                                
   SOIL LOWER UPPER   SAT  EXTR  INIT   ROOT   BULK     pH    NO3    NH4    ORG 
  DEPTH LIMIT LIMIT    SW    SW    SW   DIST   DENS                          C  
   cm   cm3/cm3    cm3/cm3    cm3/cm3         g/cm3         ugN/g  ugN/g     %  
------------------------------------------------------------------------------- 
  0-  5 0.160 0.252 0.376 0.092 0.252   1.00   1.69   6.60   8.90   4.51   0.45 
  5- 15 0.160 0.252 0.376 0.092 0.252   1.00   1.69   6.60   8.90   4.51   0.45 
 15- 30 0.160 0.252 0.376 0.092 0.252   1.00   1.69   6.60   8.90   4.51   0.45 
 30- 53 0.120 0.200 0.440 0.080 0.200   0.27   1.40   7.10   5.60   5.04   0.17 
 53- 77 0.120 0.200 0.440 0.080 0.200   0.27   1.40   7.10   5.60   5.04   0.17 
 77-100 0.120 0.200 0.440 0.080 0.200   0.27   1.40   7.10   5.60   5.04   0.17 
                                                                                
TOT-100  13.2  21.6  42.1   8.4  21.6  <--cm   -  kg/ha-->  100.0   72.3  39475 
SOIL ALBEDO    : 0.09      EVAPORATION LIMIT : 6.00         MIN. FACTOR  : 1.00 
RUNOFF CURVE # :76.00      DRAINAGE RATE     : 0.60         FERT. FACTOR : 1.00 
                                                                                
 Maize      CULTIVAR :CI0001-P30F35             ECOTYPE :IB0001                 
 P1     : 212.00  P2     : 0.3000  P5     : 925.00                              
 G2     : 954.00  G3     :  7.000  PHINT  : 50.000                              


*SIMULATED CROP AND SOIL STATUS AT MAIN DEVELOPMENT STAGES

 RUN NO.     8     P08/18                  

        CROP GROWTH     BIOMASS         LEAF   CROP N     STRESS      STRESS                                           
   DATE  AGE STAGE        kg/ha    LAI   NUM  kg/ha  %   H2O  Nitr Phos1 Phos2  RSTG                                   
 ------  --- ----------   -----  -----  ----  ---  ---  ----  ----  ----  ----  ----                                   
 19 JUL    0 Start Sim        0   0.00   0.0    0  0.0  0.00  0.00  0.00  0.00     7
 18 AUG    0 Sowing           0   0.00   0.0    0  0.0  0.00  0.00  0.00  0.00     8
 19 AUG    1 Germinate        0   0.00   0.0    0  0.0  0.00  0.00  0.00  0.00     9
 23 AUG    5 Emergence       25   0.00   2.2    1  4.4  0.00  0.01  0.00  0.00     1
  2 SEP   15 End Juveni     102   0.22   7.1    3  3.3  0.00  0.00  0.00  0.00     2
  7 SEP   20 Floral Ini     292   0.54   9.3   11  3.6  0.00  0.00  0.00  0.00     3
  8 OCT   51 75% Silkin    4688   2.15  19.1   91  1.9  0.24  0.00  0.00  0.00     4
 17 OCT   60 Beg Gr Fil    6698   2.15  19.1   91  1.4  0.00  0.00  0.00  0.00     5
 25 NOV   99 End Gr Fil   13661   0.97  19.1  167  1.2  0.07  0.00  0.00  0.00     6
 27 NOV  101 Maturity     13661   0.97  19.1  167  1.2  0.00  0.00  0.00  0.00    10
 27 NOV  101 Harvest      13661   0.97  19.1  167  1.2  0.00  0.00  0.00  0.00    10


*MAIN GROWTH AND DEVELOPMENT VARIABLES

@     VARIABLE                                         SIMULATED     MEASURED
      --------                                         ---------     --------
      Anthesis day (dap)                                      51          -99
      Physiological maturity day (dap)                       101          -99
      Yield at harvest maturity (kg [dm]/ha)                7263          -99
      Number at maturity (no/m2)                            2858          -99
[...]
 WATER BALANCE  : RAINFED                                                       
 IRRIGATION     : NOT IRRIGATED                                                 
 NITROGEN BAL.  : SOIL-N & N-UPTAKE SIMULATION; NO N-FIXATION                   
 N-FERTILIZER   :      162 kg/ha IN     6 APPLICATIONS                          
 RESIDUE/MANURE : INITIAL :     0 kg/ha ;       0 kg/ha IN     0 APPLICATIONS   
 ENVIRONM. OPT. : DAYL=    0.00  SRAD=    0.00  TMAX=    0.00  TMIN=    0.00    
                  RAIN=    0.00  CO2 =    0.00  DEW =    0.00  WIND=    0.00    
 SIMULATION OPT : WATER   :Y  NITROGEN:Y  N-FIX:N  PHOSPH :N  PESTS  :N         
                  PHOTO   :C  ET      :R  INFIL:S  HYDROL :R  SOM    :G         
                  CO2 348ppm  NSWIT   :1  EVAP :S  SOIL   :2  STEMP  :D         
 MANAGEMENT OPT : PLANTING:R  IRRIG   :N  FERT :D  RESIDUE:R  HARVEST:M         
                  WEATHER :M  TILLAGE :N                                        
                                                                                
*SUMMARY OF SOIL AND GENETIC INPUT PARAMETERS                                   
                                                                                
   SOIL LOWER UPPER   SAT  EXTR  INIT   ROOT   BULK     pH    NO3    NH4    ORG 
  DEPTH LIMIT LIMIT    SW    SW    SW   DIST   DENS                          C  
   cm   cm3/cm3    cm3/cm3    cm3/cm3         g/cm3         ugN/g  ugN/g     %  
------------------------------------------------------------------------------- 
  0-  5 0.160 0.252 0.376 0.092 0.252   1.00   1.69   6.60   8.90   4.51   0.45 
  5- 15 0.160 0.252 0.376 0.092 0.252   1.00   1.69   6.60   8.90   4.51   0.45 
 15- 30 0.160 0.252 0.376 0.092 0.252   1.00   1.69   6.60   8.90   4.51   0.45 
 30- 53 0.120 0.200 0.440 0.080 0.200   0.27   1.40   7.10   5.60   5.04   0.17 
 53- 77 0.120 0.200 0.440 0.080 0.200   0.27   1.40   7.10   5.60   5.04   0.17 
 77-100 0.120 0.200 0.440 0.080 0.200   0.27   1.40   7.10   5.60   5.04   0.17 
                                                                                
TOT-100  13.2  21.6  42.1   8.4  21.6  <--cm   -  kg/ha-->  100.0   72.3  39475 
SOIL ALBEDO    : 0.09      EVAPORATION LIMIT : 6.00         MIN. FACTOR  : 1.00 
RUNOFF CURVE # :76.00      DRAINAGE RATE     : 0.60         FERT. FACTOR : 1.00 
                                                                                
 Maize      CULTIVAR :CI0001-P30F35             ECOTYPE :IB0001                 
 P1     : 212.00  P2     : 0.3000  P5     : 925.00                              
 G2     : 954.00  G3     :  7.000  PHINT  : 50.000                              


*SIMULATED CROP AND SOIL STATUS AT MAIN DEVELOPMENT STAGES

 RUN NO.    31     P11/26                  

        CROP GROWTH     BIOMASS         LEAF   CROP N     STRESS      STRESS                                           
   DATE  AGE STAGE        kg/ha    LAI   NUM  kg/ha  %   H2O  Nitr Phos1 Phos2  RSTG                                   
 ------  --- ----------   -----  -----  ----  ---  ---  ----  ----  ----  ----  ----                                   
 26 NOV    0 Start Sim        0   0.00   0.0    0  0.0  0.00  0.00  0.00  0.00     7
 26 DEC    0 Sowing           0   0.00   0.0    0  0.0  0.00  0.00  0.00  0.00     8
 27 DEC    1 Germinate        0   0.00   0.0    0  0.0  0.00  0.00  0.00  0.00     9
 31 DEC    5 Emergence       25   0.00   2.1    1  4.4  0.00  0.01  0.00  0.00     1
 11 JAN   16 End Juveni     108   0.23   7.2    4  3.2  0.00  0.00  0.00  0.00     2
 15 JAN   20 Floral Ini     252   0.48   8.9    9  3.7  0.00  0.01  0.00  0.00     3
 12 FEB   48 75% Silkin    2200   1.12  18.4   50  2.3  0.54  0.00  0.00  0.00     4
 21 FEB   57 Beg Gr Fil    3583   1.12  18.4   50  1.4  0.00  0.00  0.00  0.00     5
 27 MAR   91 End Gr Fil    6627   0.77  18.4   78  1.2  0.30  0.00  0.00  0.00     6
 29 MAR   93 Maturity      6627   0.77  18.4   78  1.2  0.68  0.00  0.00  0.00    10
 29 MAR   93 Harvest       6627   0.77  18.4   78  1.2  0.00  0.00  0.00  0.00    10


*MAIN GROWTH AND DEVELOPMENT VARIABLES

@     VARIABLE                                         SIMULATED     MEASURED
      --------                                         ---------     --------
      Anthesis day (dap)                                      48          -99
      Physiological maturity day (dap)                        93          -99
      Yield at harvest maturity (kg [dm]/ha)                3131          -99
      Number at maturity (no/m2)                            1996          -99
      Unit wt at maturity (g [dm]/unit)                   0.1568          -99
      Number at maturity (no/unit)                         322.0          -99
      Tops weight at maturity (kg [dm]/ha)                  6627          -99
      By-product produced (stalk) at maturity (kg[dm]/ha    3527          -99
      Leaf area index, maximum                              1.55          -99
      Harvest index at maturity                            0.472          -99
      Grain N at maturity (kg/ha)                             56          -99
      Tops N at maturity (kg/ha)                              78          -99
      Stem N at maturity (kg/ha)                              22          -99
      Grain N at maturity (%)                                1.8          -99
      Tops weight at anthesis (kg [dm]/ha)                  2149          -99
      Tops N at anthesis (kg/ha)                              50          -99
      Leaf number per stem at maturity                     18.38          -99
      Emergence day (dap)                                      5          -99


*ENVIRONMENTAL AND STRESS FACTORS

 |-----Development Phase------|--------------------------------------Environment--------------------------------------|-----------------Stress-----------------|
                              |---------------Average--------------|-----Cumulative-----|--------Count of days--------|          (0=Min, 1=Max Stress)         |
                         Time  Temp  Temp  Temp Solar Photop                Evapo    Pot TMIN TMIN TMAX TMAX TMAX RAIN|----Water----|---Nitrogen--|-Phosphorus-|
                         Span   Max   Min  Mean   Rad  [day]    CO2   Rain  Trans     ET   <    <    >    >    >    >   Photo         Photo         Photo
                         days    邂    邂    邂 MJ/m2     hr    ppm     mm     mm     mm  0邂  2邂 30邂 32邂 34邂  0mm  synth Growth  synth Growth  synth Growth
----------------------------------------------------------------------------------------------------------------------------------------------------------------
 Emergence-End Juvenile    11  32.2  23.1  27.6  19.0   0.00  347.8   36.2   26.5   60.7    0    0   10    6    0    3  0.000  0.000  0.002  0.005  0.000  0.000
 End Juvenil-Floral Init    4  33.9  22.9  28.4  21.4   0.00  347.8    0.0    5.9   24.4    0    0    4    4    2    0  0.000  0.000  0.002  0.005  0.000  0.000
 Floral Init-End Lf Grow   28  34.9  23.7  29.3  19.1   0.00  348.0    4.0   51.0  151.0    0    0   28   26   18    4  0.392  0.517  0.000  0.000  0.000  0.000
 End Lf Grth-Beg Grn Fil    9  33.1  23.3  28.2  18.7   0.00  348.1   79.5   34.2   45.7    0    0    7    7    4    3  0.064  0.080  0.000  0.000  0.000  0.000
 Grain Filling Phase       34  34.3  23.8  29.0  20.4   6.70  348.2   94.8  115.9  198.1    0    0   30   28   20   10  0.179  0.279  0.000  0.000  0.000  0.000


 Planting to Harvest       93  34.0  23.5  28.7  19.7   2.75  348.0  219.8  246.5  518.7    0    0   85   76   45   21  0.199  0.278  0.000  0.001  0.000  0.000
----------------------------------------------------------------------------------------------------------------------------------------------------------------


*Resource Productivity
 Growing season length:  93 days 

 Precipitation during growing season       219.8 mm[rain]
   Dry Matter Productivity                  3.01 kg[DM]/m3[rain]          =   30.1 kg[DM]/ha per mm[rain]
   Yield Productivity                       1.42 kg[grain yield]/m3[rain] =   14.2 kg[yield]/ha per mm[rain]

 Evapotranspiration during growing season  246.5 mm[ET]
   Dry Matter Productivity                  2.69 kg[DM]/m3[ET]            =   26.9 kg[DM]/ha per mm[ET]
   Yield Productivity                       1.27 kg[grain yield]/m3[ET]   =   12.7 kg[yield]/ha per mm[ET]

 Transpiration during growing season       152.2 mm[EP]
   Dry Matter Productivity                  4.35 kg[DM]/m3[EP]            =   43.5 kg[DM]/ha per mm[EP]
   Yield Productivity                       2.06 kg[grain yield]/m3[EP]   =   20.6 kg[yield]/ha per mm[EP]

 N applied during growing season            162. kg[N applied]/ha
   Dry Matter Productivity                  40.9 kg[DM]/kg[N applied]
   Yield Productivity                       19.3 kg[yield]/kg[N applied]

 N uptake during growing season               90 kg[N uptake]/ha
   Dry Matter Productivity                  73.6 kg[DM]/kg[N uptake]
   Yield Productivity                       34.8 kg[yield]/kg[N uptake]

--------------------------------------------------------------------------------------------------------------

                     Maize YIELD :     3131 kg/ha    [Dry weight] 

**************************************************************************************************************

*DSSAT Cropping System Model Ver. 4.6.1.000 -release      OCT 02, 2017; 12:57:01
                                                                                
*RUN  32        : P12/31                    MZCER046 ANES1986   32              
 MODEL          : MZCER046 - Maize                                              
 EXPERIMENT     : ANES1986 MZ  Analisis a침os de bajo rendimiento Espinal       
 DATA PATH      : C:\DSSAT46\maize\                                             
 TREATMENT 32   : P12/31                    MZCER046                            
                                                                                
                                                                                
 CROP           : Maize            CULTIVAR : P30F35           ECOTYPE :IB0001  
 STARTING DATE  : DEC  1 1986                                                   
 PLANTING DATE  : DEC 31 1986        PLANTS/m2 :  6.2     ROW SPACING :  80.cm  
 WEATHER        : CNAT   1986                                                   
 SOIL           : CCESPI2017     TEXTURE : SL    -   Suelo Espinal Calibraci    
 SOIL INITIAL C : DEPTH:100cm EXTR. H2O: 83.6mm  NO3:100.0kg/ha  NH4: 72.3kg/ha 
 WATER BALANCE  : RAINFED                                                       
 IRRIGATION     : NOT IRRIGATED                                                 
 NITROGEN BAL.  : SOIL-N & N-UPTAKE SIMULATION; NO N-FIXATION                   
 N-FERTILIZER   :      162 kg/ha IN     6 APPLICATIONS                          
 RESIDUE/MANURE : INITIAL :     0 kg/ha ;       0 kg/ha IN     0 APPLICATIONS   
 ENVIRONM. OPT. : DAYL=    0.00  SRAD=    0.00  TMAX=    0.00  TMIN=    0.00    
                  RAIN=    0.00  CO2 =    0.00  DEW =    0.00  WIND=    0.00    
 SIMULATION OPT : WATER   :Y  NITROGEN:Y  N-FIX:N  PHOSPH :N  PESTS  :N         
                  PHOTO   :C  ET      :R  INFIL:S  HYDROL :R  SOM    :G         
                  CO2 348ppm  NSWIT   :1  EVAP :S  SOIL   :2  STEMP  :D         
 MANAGEMENT OPT : PLANTING:R  IRRIG   :N  FERT :D  RESIDUE:R  HARVEST:M         
                  WEATHER :M  TILLAGE :N                                        
                                                                                
*SUMMARY OF SOIL AND GENETIC INPUT PARAMETERS                                   
                                                                                
   SOIL LOWER UPPER   SAT  EXTR  INIT   ROOT   BULK     pH    NO3    NH4    ORG 
  DEPTH LIMIT LIMIT    SW    SW    SW   DIST   DENS                          C  
   cm   cm3/cm3    cm3/cm3    cm3/cm3         g/cm3         ugN/g  ugN/g     %  
------------------------------------------------------------------------------- 
  0-  5 0.160 0.252 0.376 0.092 0.252   1.00   1.69   6.60   8.90   4.51   0.45 
  5- 15 0.160 0.252 0.376 0.092 0.252   1.00   1.69   6.60   8.90   4.51   0.45 
 15- 30 0.160 0.252 0.376 0.092 0.252   1.00   1.69   6.60   8.90   4.51   0.45 
 30- 53 0.120 0.200 0.440 0.080 0.200   0.27   1.40   7.10   5.60   5.04   0.17 
 53- 77 0.120 0.200 0.440 0.080 0.200   0.27   1.40   7.10   5.60   5.04   0.17 
 77-100 0.120 0.200 0.440 0.080 0.200   0.27   1.40   7.10   5.60   5.04   0.17 
                                                                                
TOT-100  13.2  21.6  42.1   8.4  21.6  <--cm   -  kg/ha-->  100.0   72.3  39475 
SOIL ALBEDO    : 0.09      EVAPORATION LIMIT : 6.00         MIN. FACTOR  : 1.00 
RUNOFF CURVE # :76.00      DRAINAGE RATE     : 0.60         FERT. FACTOR : 1.00 
                                                                                
 Maize      CULTIVAR :CI0001-P30F35             ECOTYPE :IB0001                 
 P1     : 212.00  P2     : 0.3000  P5     : 925.00                              
 G2     : 954.00  G3     :  7.000  PHINT  : 50.000                              


*SIMULATED CROP AND SOIL STATUS AT MAIN DEVELOPMENT STAGES

 RUN NO.    32     P12/31                  

        CROP GROWTH     BIOMASS         LEAF   CROP N     STRESS      STRESS                                           
   DATE  AGE STAGE        kg/ha    LAI   NUM  kg/ha  %   H2O  Nitr Phos1 Phos2  RSTG                                   
 ------  --- ----------   -----  -----  ----  ---  ---  ----  ----  ----  ----  ----                                   
  1 DEC    0 Start Sim        0   0.00   0.0    0  0.0  0.00  0.00  0.00  0.00     7
 31 DEC    0 Sowing           0   0.00   0.0    0  0.0  0.00  0.00  0.00  0.00     8
  1 JAN    1 Germinate        0   0.00   0.0    0  0.0  0.00  0.00  0.00  0.00     9
  5 JAN    5 Emergence       25   0.00   2.1    1  4.4  0.00  0.01  0.00  0.00     1
 15 JAN   15 End Juveni      94   0.20   6.9    3  3.2  0.00  0.00  0.00  0.00     2
 19 JAN   19 Floral Ini     227   0.44   8.6    8  3.7  0.00  0.00  0.00  0.00     3
 16 FEB   47 75% Silkin    2607   1.30  18.0   54  2.1  0.44  0.00  0.00  0.00     4
 24 FEB   55 Beg Gr Fil    4175   1.27  18.0   54  1.3  0.12  0.00  0.00  0.00     5
 30 MAR   89 End Gr Fil    7982   0.81  18.0   97  1.2  0.36  0.00  0.00  0.00     6
  2 APR   92 Maturity      7982   0.81  18.0   97  1.2  0.88  0.00  0.00  0.00    10
  2 APR   92 Harvest       7982   0.81  18.0   97  1.2  0.00  0.00  0.00  0.00    10


*MAIN GROWTH AND DEVELOPMENT VARIABLES

@     VARIABLE                                         SIMULATED     MEASURED
      --------                                         ---------     --------
      Anthesis day (dap)                                      47          -99
      Physiological maturity day (dap)                        92          -99
      Yield at harvest maturity (kg [dm]/ha)                3971          -99
      Number at maturity (no/m2)                            2590          -99
      Unit wt at maturity (g [dm]/unit)                   0.1534          -99
      Number at maturity (no/unit)                         417.7          -99
      Tops weight at maturity (kg [dm]/ha)                  7982          -99
      By-product produced (stalk) at maturity (kg[dm]/ha    4041          -99
      Leaf area index, maximum                              1.51          -99
      Harvest index at maturity                            0.498          -99
      Grain N at maturity (kg/ha)                             71          -99
      Tops N at maturity (kg/ha)                              97          -99
      Stem N at maturity (kg/ha)                              26          -99
      Grain N at maturity (%)                                1.8          -99
      Tops weight at anthesis (kg [dm]/ha)                  2378          -99
      Tops N at anthesis (kg/ha)                              51          -99
      Leaf number per stem at maturity                     18.01          -99
      Emergence day (dap)                                      5          -99


*ENVIRONMENTAL AND STRESS FACTORS

 |-----Development Phase------|--------------------------------------Environment--------------------------------------|-----------------Stress-----------------|
                              |---------------Average--------------|-----Cumulative-----|--------Count of days--------|          (0=Min, 1=Max Stress)         |
                         Time  Temp  Temp  Temp Solar Photop                Evapo    Pot TMIN TMIN TMAX TMAX TMAX RAIN|----Water----|---Nitrogen--|-Phosphorus-|
                         Span   Max   Min  Mean   Rad  [day]    CO2   Rain  Trans     ET   <    <    >    >    >    >   Photo         Photo         Photo
                         days    邂    邂    邂 MJ/m2     hr    ppm     mm     mm     mm  0邂  2邂 30邂 32邂 34邂  0mm  synth Growth  synth Growth  synth Growth
----------------------------------------------------------------------------------------------------------------------------------------------------------------
 Emergence-End Juvenile    10  32.8  23.0  27.9  19.8   0.00  347.8    0.0    7.7   57.5    0    0   10    7    2    0  0.000  0.000  0.002  0.006  0.000  0.000
 End Juvenil-Floral Init    4  36.0  22.3  29.1  22.5   0.00  348.0    0.0    5.4   27.2    0    0    4    4    4    0  0.000  0.000  0.001  0.001  0.000  0.000
 Floral Init-End Lf Grow   28  34.3  23.7  29.0  18.2   0.00  348.0   83.5   57.7  142.8    0    0   26   24   15    7  0.330  0.444  0.000  0.000  0.000  0.000
 End Lf Grth-Beg Grn Fil    8  34.9  24.3  29.6  22.3   0.00  348.1    3.3   35.2   49.7    0    0    8    8    6    2  0.022  0.063  0.000  0.000  0.000  0.000
 Grain Filling Phase       34  34.1  23.7  28.9  20.0   7.93  348.2   91.5  108.3  191.7    0    0   30   28   19    8  0.251  0.352  0.000  0.000  0.000  0.000


 Planting to Harvest       92  34.1  23.6  28.8  19.7   3.42  348.1  214.5  238.1  513.6    0    0   85   77   47   20  0.220  0.298  0.000  0.001  0.000  0.000
----------------------------------------------------------------------------------------------------------------------------------------------------------------


*Resource Productivity
 Growing season length:  92 days 

 Precipitation during growing season       214.5 mm[rain]
   Dry Matter Productivity                  3.72 kg[DM]/m3[rain]          =   37.2 kg[DM]/ha per mm[rain]
   Yield Productivity                       1.85 kg[grain yield]/m3[rain] =   18.5 kg[yield]/ha per mm[rain]

 Evapotranspiration during growing season  238.1 mm[ET]
   Dry Matter Productivity                  3.35 kg[DM]/m3[ET]            =   33.5 kg[DM]/ha per mm[ET]
   Yield Productivity                       1.67 kg[grain yield]/m3[ET]   =   16.7 kg[yield]/ha per mm[ET]

 Transpiration during growing season       151.3 mm[EP]
   Dry Matter Productivity                  5.28 kg[DM]/m3[EP]            =   52.8 kg[DM]/ha per mm[EP]
   Yield Productivity                       2.63 kg[grain yield]/m3[EP]   =   26.3 kg[yield]/ha per mm[EP]

 N applied during growing season            162. kg[N applied]/ha
   Dry Matter Productivity                  49.3 kg[DM]/kg[N applied]
   Yield Productivity                       24.5 kg[yield]/kg[N applied]

 N uptake during growing season              106 kg[N uptake]/ha
   Dry Matter Productivity                  75.3 kg[DM]/kg[N uptake]
   Yield Productivity                       37.5 kg[yield]/kg[N uptake]

--------------------------------------------------------------------------------------------------------------

                     Maize YIELD :     3971 kg/ha    [Dry weight] 

**************************************************************************************************************
