*SIMULATION OVERVIEW FILE

*DSSAT Cropping System Model Ver. 4.6.1.000 -release      OCT 24, 2017; 10:58:51
                                                                                
*RUN   1        : P07/14                    MZCER046 ANES1986    1              
 MODEL          : MZCER046 - Maize                                              
 EXPERIMENT     : ANES1986 MZ  Analisis a침os de bajo rendimiento Espinal       
 DATA PATH      : C:\DSSAT46\maize\                                             
 TREATMENT  1   : P07/14                    MZCER046                            
                                                                                
                                                                                
 CROP           : Maize            CULTIVAR : FNC3056          ECOTYPE :IB0001  
 STARTING DATE  : JUN 14 1986                                                   
 PLANTING DATE  : JUL 14 1986        PLANTS/m2 :  6.2     ROW SPACING :  80.cm  
 WEATHER        : CNAT   1986                                                   
 SOIL           : CCESPI2017     TEXTURE : SL    -   Suelo Espinal Calibraci    
 SOIL INITIAL C : DEPTH:100cm EXTR. H2O: 83.6mm  NO3:  0.0kg/ha  NH4:  0.0kg/ha 
 WATER BALANCE  : RAINFED                                                       
 IRRIGATION     : NOT IRRIGATED                                                 
 NITROGEN BAL.  : SOIL-N & N-UPTAKE SIMULATION; NO N-FIXATION                   
 N-FERTILIZER   :      162 kg/ha IN     6 APPLICATIONS                          
 RESIDUE/MANURE : INITIAL :     0 kg/ha ;       0 kg/ha IN     0 APPLICATIONS   
 ENVIRONM. OPT. : DAYL=    0.00  SRAD=    0.00  TMAX=    0.00  TMIN=    0.00    
                  RAIN=    0.00  CO2 =    0.00  DEW =    0.00  WIND=    0.00    
 SIMULATION OPT : WATER   :Y  NITROGEN:Y  N-FIX:N  PHOSPH :N  PESTS  :N         
                  PHOTO   :C  ET      :R  INFIL:S  HYDROL :R  SOM    :G         
                  CO2 347ppm  NSWIT   :1  EVAP :S  SOIL   :2  STEMP  :D         
 MANAGEMENT OPT : PLANTING:R  IRRIG   :N  FERT :D  RESIDUE:R  HARVEST:M         
                  WEATHER :M  TILLAGE :N                                        
                                                                                
*SUMMARY OF SOIL AND GENETIC INPUT PARAMETERS                                   
                                                                                
   SOIL LOWER UPPER   SAT  EXTR  INIT   ROOT   BULK     pH    NO3    NH4    ORG 
  DEPTH LIMIT LIMIT    SW    SW    SW   DIST   DENS                          C  
   cm   cm3/cm3    cm3/cm3    cm3/cm3         g/cm3         ugN/g  ugN/g     %  
------------------------------------------------------------------------------- 
  0-  5 0.160 0.252 0.376 0.092 0.252   1.00   1.69   6.60   0.00   0.00   0.45 
  5- 15 0.160 0.252 0.376 0.092 0.252   1.00   1.69   6.60   0.00   0.00   0.45 
 15- 30 0.160 0.252 0.376 0.092 0.252   1.00   1.69   6.60   0.00   0.00   0.45 
 30- 53 0.120 0.200 0.440 0.080 0.200   0.27   1.40   7.10   0.00   0.00   0.17 
 53- 77 0.120 0.200 0.440 0.080 0.200   0.27   1.40   7.10   0.00   0.00   0.17 
 77-100 0.120 0.200 0.440 0.080 0.200   0.27   1.40   7.10   0.00   0.00   0.17 
                                                                                
TOT-100  13.2  21.6  42.1   8.4  21.6  <--cm   -  kg/ha-->    0.0    0.0  39475 
SOIL ALBEDO    : 0.09      EVAPORATION LIMIT : 6.00         MIN. FACTOR  : 1.00 
RUNOFF CURVE # :76.00      DRAINAGE RATE     : 0.60         FERT. FACTOR : 1.00 
                                                                                
 Maize      CULTIVAR :CI0003-FNC3056            ECOTYPE :IB0001                 
 P1     : 233.00  P2     : 0.5000  P5     : 976.00                              
 G2     : 956.00  G3     :  7.500  PHINT  : 45.600                              


*SIMULATED CROP AND SOIL STATUS AT MAIN DEVELOPMENT STAGES

 RUN NO.     1     P07/14                  

        CROP GROWTH     BIOMASS         LEAF   CROP N     STRESS      STRESS                                           
   DATE  AGE STAGE        kg/ha    LAI   NUM  kg/ha  %   H2O  Nitr Phos1 Phos2  RSTG                                   
 ------  --- ----------   -----  -----  ----  ---  ---  ----  ----  ----  ----  ----                                   
 14 JUN    0 Start Sim        0   0.00   0.0    0  0.0  0.00  0.00  0.00  0.00     7
 14 JUL    0 Sowing           0   0.00   0.0    0  0.0  0.00  0.00  0.00  0.00     8
 15 JUL    1 Germinate        0   0.00   0.0    0  0.0  0.00  0.00  0.00  0.00     9
 19 JUL    5 Emergence       25   0.00   2.2    1  4.4  0.00  0.01  0.00  0.00     1
 31 JUL   17 End Juveni     158   0.32   8.1    5  3.2  0.04  0.00  0.00  0.00     2
  8 AUG   25 Floral Ini     428   0.64  11.9    7  1.6  0.34  0.43  0.00  0.00     3
 11 SEP   59 75% Silkin    2649   0.94  24.2   66  2.5  0.60  0.20  0.00  0.00     4
 19 SEP   67 Beg Gr Fil    2543   0.64  24.2   66  2.6  0.95  0.00  0.00  0.00     5
 30 OCT  108 End Gr Fil    3729   0.56  24.2   66  1.8  0.07  0.00  0.00  0.00     6
  2 NOV  111 Maturity      3729   0.56  24.2   66  1.8  0.00  0.00  0.00  0.00    10
  2 NOV  111 Harvest       3729   0.56  24.2   66  1.8  0.00  0.00  0.00  0.00    10


*MAIN GROWTH AND DEVELOPMENT VARIABLES

@     VARIABLE                                         SIMULATED     MEASURED
      --------                                         ---------     --------
      Anthesis day (dap)                                      59          -99
      Physiological maturity day (dap)                       111          -99
      Yield at harvest maturity (kg [dm]/ha)                 935          -99
      Number at maturity (no/m2)                             333          -99
      Unit wt at maturity (g [dm]/unit)                   0.2808          -99
      Number at maturity (no/unit)                          68.5          -99
      Tops weight at maturity (kg [dm]/ha)                  3729          -99
      By-product produced (stalk) at maturity (kg[dm]/ha    2833          -99
      Leaf area index, maximum                              1.49          -99
      Harvest index at maturity                            0.251          -99
      Grain N at maturity (kg/ha)                             16          -99
      Tops N at maturity (kg/ha)                              66          -99
      Stem N at maturity (kg/ha)                              45          -99
      Grain N at maturity (%)                                1.7          -99
      Tops weight at anthesis (kg [dm]/ha)                  2657          -99
      Tops N at anthesis (kg/ha)                              66          -99
      Leaf number per stem at maturity                     24.24          -99
      Emergence day (dap)                                      5          -99


*ENVIRONMENTAL AND STRESS FACTORS

 |-----Development Phase------|--------------------------------------Environment--------------------------------------|-----------------Stress-----------------|
                              |---------------Average--------------|-----Cumulative-----|--------Count of days--------|          (0=Min, 1=Max Stress)         |
                         Time  Temp  Temp  Temp Solar Photop                Evapo    Pot TMIN TMIN TMAX TMAX TMAX RAIN|----Water----|---Nitrogen--|-Phosphorus-|
                         Span   Max   Min  Mean   Rad  [day]    CO2   Rain  Trans     ET   <    <    >    >    >    >   Photo         Photo         Photo
                         days    邂    邂    邂 MJ/m2     hr    ppm     mm     mm     mm  0邂  2邂 30邂 32邂 34邂  0mm  synth Growth  synth Growth  synth Growth
----------------------------------------------------------------------------------------------------------------------------------------------------------------
 Emergence-End Juvenile    12  34.2  20.7  27.4  19.3  24.00  347.2    0.0    6.1   67.4    0    0   11   11    7    0  0.014  0.040  0.002  0.006  0.000  0.000
 End Juvenil-Floral Init    8  35.3  22.4  28.8  20.3  24.00  347.2    0.0   13.0   46.6    0    0    8    8    8    0  0.045  0.275  0.171  0.348  0.000  0.000
 Floral Init-End Lf Grow   34  34.7  22.3  28.5  20.2  21.97  347.3   48.3   72.7  193.4    0    0   34   28   20    9  0.468  0.587  0.149  0.222  0.000  0.000
 End Lf Grth-Beg Grn Fil    8  36.6  24.0  30.3  20.2  14.16  347.4    0.4    4.1   50.3    0    0    8    8    7    1  0.921  0.948  0.000  0.000  0.000  0.000
 Grain Filling Phase       41  30.8  21.5  26.2  17.9   4.92  347.5  323.9  177.7  199.7    0    0   24    9    5   31  0.084  0.089  0.000  0.000  0.000  0.000


 Planting to Harvest      111  33.3  21.9  27.6  19.0  14.97  347.4  374.4  284.6  594.2    0    0   92   70   49   43  0.246  0.305  0.058  0.094  0.000  0.000
----------------------------------------------------------------------------------------------------------------------------------------------------------------


*Resource Productivity
 Growing season length: 111 days 

 Precipitation during growing season       374.4 mm[rain]
   Dry Matter Productivity                  1.00 kg[DM]/m3[rain]          =   10.0 kg[DM]/ha per mm[rain]
   Yield Productivity                       0.25 kg[grain yield]/m3[rain] =    2.5 kg[yield]/ha per mm[rain]

 Evapotranspiration during growing season  284.6 mm[ET]
   Dry Matter Productivity                  1.31 kg[DM]/m3[ET]            =   13.1 kg[DM]/ha per mm[ET]
   Yield Productivity                       0.33 kg[grain yield]/m3[ET]   =    3.3 kg[yield]/ha per mm[ET]

 Transpiration during growing season       125.3 mm[EP]
   Dry Matter Productivity                  2.98 kg[DM]/m3[EP]            =   29.8 kg[DM]/ha per mm[EP]
   Yield Productivity                       0.75 kg[grain yield]/m3[EP]   =    7.5 kg[yield]/ha per mm[EP]

 N applied during growing season            162. kg[N applied]/ha
   Dry Matter Productivity                  23.0 kg[DM]/kg[N applied]
   Yield Productivity                        5.8 kg[yield]/kg[N applied]

 N uptake during growing season               71 kg[N uptake]/ha
   Dry Matter Productivity                  52.5 kg[DM]/kg[N uptake]
   Yield Productivity                       13.2 kg[yield]/kg[N uptake]

--------------------------------------------------------------------------------------------------------------

                     Maize YIELD :      935 kg/ha    [Dry weight] 

**************************************************************************************************************

*DSSAT Cropping System Model Ver. 4.6.1.000 -release      OCT 24, 2017; 10:58:51
                                                                                
*RUN   2        : P07/19                    MZCER046 ANES1986    2              
 MODEL          : MZCER046 - Maize                                              
 EXPERIMENT     : ANES1986 MZ  Analisis a침os de bajo rendimiento Espinal       
 DATA PATH      : C:\DSSAT46\maize\                                             
 TREATMENT  2   : P07/19                    MZCER046                            
                                                                                
                                                                                
 CROP           : Maize            CULTIVAR : FNC3056          ECOTYPE :IB0001  
 STARTING DATE  : JUN 19 1986                                                   
 PLANTING DATE  : JUL 19 1986        PLANTS/m2 :  6.2     ROW SPACING :  80.cm  
 WEATHER        : CNAT   1986                                                   
 SOIL           : CCESPI2017     TEXTURE : SL    -   Suelo Espinal Calibraci    
 SOIL INITIAL C : DEPTH:100cm EXTR. H2O: 83.6mm  NO3:  0.0kg/ha  NH4:  0.0kg/ha 
 WATER BALANCE  : RAINFED                                                       
 IRRIGATION     : NOT IRRIGATED                                                 
 NITROGEN BAL.  : SOIL-N & N-UPTAKE SIMULATION; NO N-FIXATION                   
 N-FERTILIZER   :      162 kg/ha IN     6 APPLICATIONS                          
 RESIDUE/MANURE : INITIAL :     0 kg/ha ;       0 kg/ha IN     0 APPLICATIONS   
 ENVIRONM. OPT. : DAYL=    0.00  SRAD=    0.00  TMAX=    0.00  TMIN=    0.00    
                  RAIN=    0.00  CO2 =    0.00  DEW =    0.00  WIND=    0.00    
 SIMULATION OPT : WATER   :Y  NITROGEN:Y  N-FIX:N  PHOSPH :N  PESTS  :N         
                  PHOTO   :C  ET      :R  INFIL:S  HYDROL :R  SOM    :G         
                  CO2 347ppm  NSWIT   :1  EVAP :S  SOIL   :2  STEMP  :D         
 MANAGEMENT OPT : PLANTING:R  IRRIG   :N  FERT :D  RESIDUE:R  HARVEST:M         
                  WEATHER :M  TILLAGE :N                                        
                                                                                
*SUMMARY OF SOIL AND GENETIC INPUT PARAMETERS                                   
                                                                                
   SOIL LOWER UPPER   SAT  EXTR  INIT   ROOT   BULK     pH    NO3    NH4    ORG 
  DEPTH LIMIT LIMIT    SW    SW    SW   DIST   DENS                          C  
   cm   cm3/cm3    cm3/cm3    cm3/cm3         g/cm3         ugN/g  ugN/g     %  
------------------------------------------------------------------------------- 
  0-  5 0.160 0.252 0.376 0.092 0.252   1.00   1.69   6.60   0.00   0.00   0.45 
  5- 15 0.160 0.252 0.376 0.092 0.252   1.00   1.69   6.60   0.00   0.00   0.45 
 15- 30 0.160 0.252 0.376 0.092 0.252   1.00   1.69   6.60   0.00   0.00   0.45 
 30- 53 0.120 0.200 0.440 0.080 0.200   0.27   1.40   7.10   0.00   0.00   0.17 
 53- 77 0.120 0.200 0.440 0.080 0.200   0.27   1.40   7.10   0.00   0.00   0.17 
 77-100 0.120 0.200 0.440 0.080 0.200   0.27   1.40   7.10   0.00   0.00   0.17 
                                                                                
TOT-100  13.2  21.6  42.1   8.4  21.6  <--cm   -  kg/ha-->    0.0    0.0  39475 
SOIL ALBEDO    : 0.09      EVAPORATION LIMIT : 6.00         MIN. FACTOR  : 1.00 
RUNOFF CURVE # :76.00      DRAINAGE RATE     : 0.60         FERT. FACTOR : 1.00 
                                                                                
 Maize      CULTIVAR :CI0003-FNC3056            ECOTYPE :IB0001                 
 P1     : 233.00  P2     : 0.5000  P5     : 976.00                              
 G2     : 956.00  G3     :  7.500  PHINT  : 45.600                              


*SIMULATED CROP AND SOIL STATUS AT MAIN DEVELOPMENT STAGES

 RUN NO.     2     P07/19                  

        CROP GROWTH     BIOMASS         LEAF   CROP N     STRESS      STRESS                                           
   DATE  AGE STAGE        kg/ha    LAI   NUM  kg/ha  %   H2O  Nitr Phos1 Phos2  RSTG                                   
 ------  --- ----------   -----  -----  ----  ---  ---  ----  ----  ----  ----  ----                                   
 19 JUN    0 Start Sim        0   0.00   0.0    0  0.0  0.00  0.00  0.00  0.00     7
 19 JUL    0 Sowing           0   0.00   0.0    0  0.0  0.00  0.00  0.00  0.00     8
 20 JUL    1 Germinate        0   0.00   0.0    0  0.0  0.00  0.00  0.00  0.00     9
 24 JUL    5 Emergence       25   0.00   2.2    1  4.4  0.00  0.01  0.00  0.00     1
  4 AUG   16 End Juveni     145   0.30   7.9    5  3.2  0.01  0.00  0.00  0.00     2
 12 AUG   24 Floral Ini     425   0.65  11.7    7  1.6  0.25  0.39  0.00  0.00     3
 14 SEP   57 75% Silkin    2651   1.00  24.1   66  2.5  0.59  0.11  0.00  0.00     4
 22 SEP   65 Beg Gr Fil    2651   0.71  24.1   66  2.5  0.89  0.00  0.00  0.00     5
  3 NOV  107 End Gr Fil    4353   0.71  24.1   66  1.5  0.00  0.00  0.00  0.00     6
  6 NOV  110 Maturity      4353   0.71  24.1   66  1.5  0.00  0.00  0.00  0.00    10
  6 NOV  110 Harvest       4353   0.71  24.1   66  1.5  0.00  0.00  0.00  0.00    10


*MAIN GROWTH AND DEVELOPMENT VARIABLES

@     VARIABLE                                         SIMULATED     MEASURED
      --------                                         ---------     --------
      Anthesis day (dap)                                      57          -99
      Physiological maturity day (dap)                       110          -99
      Yield at harvest maturity (kg [dm]/ha)                1481          -99
      Number at maturity (no/m2)                             488          -99
      Unit wt at maturity (g [dm]/unit)                   0.3037          -99
      Number at maturity (no/unit)                          91.3          -99
      Tops weight at maturity (kg [dm]/ha)                  4353          -99
      By-product produced (stalk) at maturity (kg[dm]/ha    2912          -99
      Leaf area index, maximum                              1.65          -99
      Harvest index at maturity                            0.340          -99
      Grain N at maturity (kg/ha)                             26          -99
      Tops N at maturity (kg/ha)                              66          -99
      Stem N at maturity (kg/ha)                              36          -99
      Grain N at maturity (%)                                1.7          -99
      Tops weight at anthesis (kg [dm]/ha)                  2648          -99
      Tops N at anthesis (kg/ha)                              66          -99
      Leaf number per stem at maturity                     24.10          -99
      Emergence day (dap)                                      5          -99


*ENVIRONMENTAL AND STRESS FACTORS

 |-----Development Phase------|--------------------------------------Environment--------------------------------------|-----------------Stress-----------------|
                              |---------------Average--------------|-----Cumulative-----|--------Count of days--------|          (0=Min, 1=Max Stress)         |
                         Time  Temp  Temp  Temp Solar Photop                Evapo    Pot TMIN TMIN TMAX TMAX TMAX RAIN|----Water----|---Nitrogen--|-Phosphorus-|
                         Span   Max   Min  Mean   Rad  [day]    CO2   Rain  Trans     ET   <    <    >    >    >    >   Photo         Photo         Photo
                         days    邂    邂    邂 MJ/m2     hr    ppm     mm     mm     mm  0邂  2邂 30邂 32邂 34邂  0mm  synth Growth  synth Growth  synth Growth
----------------------------------------------------------------------------------------------------------------------------------------------------------------
 Emergence-End Juvenile    11  34.8  21.1  28.0  19.8  24.00  347.2    0.0    5.1   63.7    0    0   11   11    9    0  0.000  0.009  0.002  0.006  0.000  0.000
 End Juvenil-Floral Init    8  36.1  22.2  29.1  20.8  24.00  347.2    0.0   12.4   49.7    0    0    8    8    8    0  0.109  0.245  0.146  0.310  0.000  0.000
 Floral Init-End Lf Grow   33  34.5  22.5  28.5  19.5  21.10  347.3   48.3   71.9  179.4    0    0   33   27   18    9  0.484  0.560  0.084  0.131  0.000  0.000
 End Lf Grth-Beg Grn Fil    8  36.9  24.6  30.7  21.4  13.11  347.4    4.3    5.9   53.1    0    0    8    8    8    3  0.841  0.895  0.000  0.000  0.000  0.000
 Grain Filling Phase       42  30.5  21.2  25.9  17.9   3.93  347.5  321.8  184.6  200.8    0    0   24    7    2   31  0.018  0.020  0.000  0.000  0.000  0.000


 Planting to Harvest      110  33.1  21.9  27.5  19.0  14.02  347.4  395.3  290.8  586.7    0    0   89   65   47   45  0.221  0.259  0.036  0.062  0.000  0.000
----------------------------------------------------------------------------------------------------------------------------------------------------------------


*Resource Productivity
 Growing season length: 110 days 

 Precipitation during growing season       395.3 mm[rain]
   Dry Matter Productivity                  1.10 kg[DM]/m3[rain]          =   11.0 kg[DM]/ha per mm[rain]
   Yield Productivity                       0.37 kg[grain yield]/m3[rain] =    3.7 kg[yield]/ha per mm[rain]

 Evapotranspiration during growing season  290.8 mm[ET]
   Dry Matter Productivity                  1.50 kg[DM]/m3[ET]            =   15.0 kg[DM]/ha per mm[ET]
   Yield Productivity                       0.51 kg[grain yield]/m3[ET]   =    5.1 kg[yield]/ha per mm[ET]

 Transpiration during growing season       143.7 mm[EP]
   Dry Matter Productivity                  3.03 kg[DM]/m3[EP]            =   30.3 kg[DM]/ha per mm[EP]
   Yield Productivity                       1.03 kg[grain yield]/m3[EP]   =   10.3 kg[yield]/ha per mm[EP]

 N applied during growing season            162. kg[N applied]/ha
   Dry Matter Productivity                  26.9 kg[DM]/kg[N applied]
   Yield Productivity                        9.1 kg[yield]/kg[N applied]

 N uptake during growing season               72 kg[N uptake]/ha
   Dry Matter Productivity                  60.5 kg[DM]/kg[N uptake]
   Yield Productivity                       20.6 kg[yield]/kg[N uptake]

--------------------------------------------------------------------------------------------------------------

                     Maize YIELD :     1481 kg/ha    [Dry weight] 

**************************************************************************************************************

*DSSAT Cropping System Model Ver. 4.6.1.000 -release      OCT 24, 2017; 10:58:51
                                                                                
*RUN   3        : P07/24                    MZCER046 ANES1986    3              
 MODEL          : MZCER046 - Maize                                              
 EXPERIMENT     : ANES1986 MZ  Analisis a침os de bajo rendimiento Espinal       
 DATA PATH      : C:\DSSAT46\maize\                                             
 TREATMENT  3   : P07/24                    MZCER046                            
                                                                                
                                                                                
 CROP           : Maize            CULTIVAR : FNC3056          ECOTYPE :IB0001  
 STARTING DATE  : JUN 24 1986                                                   
 PLANTING DATE  : JUL 24 1986        PLANTS/m2 :  6.2     ROW SPACING :  80.cm  
 WEATHER        : CNAT   1986                                                   
 SOIL           : CCESPI2017     TEXTURE : SL    -   Suelo Espinal Calibraci    
 SOIL INITIAL C : DEPTH:100cm EXTR. H2O: 83.6mm  NO3:  0.0kg/ha  NH4:  0.0kg/ha 
 WATER BALANCE  : RAINFED                                                       
 IRRIGATION     : NOT IRRIGATED                                                 
 NITROGEN BAL.  : SOIL-N & N-UPTAKE SIMULATION; NO N-FIXATION                   
 N-FERTILIZER   :      162 kg/ha IN     6 APPLICATIONS                          
 RESIDUE/MANURE : INITIAL :     0 kg/ha ;       0 kg/ha IN     0 APPLICATIONS   
 ENVIRONM. OPT. : DAYL=    0.00  SRAD=    0.00  TMAX=    0.00  TMIN=    0.00    
                  RAIN=    0.00  CO2 =    0.00  DEW =    0.00  WIND=    0.00    
 SIMULATION OPT : WATER   :Y  NITROGEN:Y  N-FIX:N  PHOSPH :N  PESTS  :N         
                  PHOTO   :C  ET      :R  INFIL:S  HYDROL :R  SOM    :G         
                  CO2 347ppm  NSWIT   :1  EVAP :S  SOIL   :2  STEMP  :D         
 MANAGEMENT OPT : PLANTING:R  IRRIG   :N  FERT :D  RESIDUE:R  HARVEST:M         
                  WEATHER :M  TILLAGE :N                                        
                                                                                
*SUMMARY OF SOIL AND GENETIC INPUT PARAMETERS                                   
                                                                                
   SOIL LOWER UPPER   SAT  EXTR  INIT   ROOT   BULK     pH    NO3    NH4    ORG 
  DEPTH LIMIT LIMIT    SW    SW    SW   DIST   DENS                          C  
   cm   cm3/cm3    cm3/cm3    cm3/cm3         g/cm3         ugN/g  ugN/g     %  
------------------------------------------------------------------------------- 
  0-  5 0.160 0.252 0.376 0.092 0.252   1.00   1.69   6.60   0.00   0.00   0.45 
  5- 15 0.160 0.252 0.376 0.092 0.252   1.00   1.69   6.60   0.00   0.00   0.45 
 15- 30 0.160 0.252 0.376 0.092 0.252   1.00   1.69   6.60   0.00   0.00   0.45 
 30- 53 0.120 0.200 0.440 0.080 0.200   0.27   1.40   7.10   0.00   0.00   0.17 
 53- 77 0.120 0.200 0.440 0.080 0.200   0.27   1.40   7.10   0.00   0.00   0.17 
 77-100 0.120 0.200 0.440 0.080 0.200   0.27   1.40   7.10   0.00   0.00   0.17 
                                                                                
TOT-100  13.2  21.6  42.1   8.4  21.6  <--cm   -  kg/ha-->    0.0    0.0  39475 
SOIL ALBEDO    : 0.09      EVAPORATION LIMIT : 6.00         MIN. FACTOR  : 1.00 
RUNOFF CURVE # :76.00      DRAINAGE RATE     : 0.60         FERT. FACTOR : 1.00 
                                                                                
 Maize      CULTIVAR :CI0003-FNC3056            ECOTYPE :IB0001                 
 P1     : 233.00  P2     : 0.5000  P5     : 976.00                              
 G2     : 956.00  G3     :  7.500  PHINT  : 45.600                              


*SIMULATED CROP AND SOIL STATUS AT MAIN DEVELOPMENT STAGES

 RUN NO.     3     P07/24                  

        CROP GROWTH     BIOMASS         LEAF   CROP N     STRESS      STRESS                                           
   DATE  AGE STAGE        kg/ha    LAI   NUM  kg/ha  %   H2O  Nitr Phos1 Phos2  RSTG                                   
 ------  --- ----------   -----  -----  ----  ---  ---  ----  ----  ----  ----  ----                                   
 24 JUN    0 Start Sim        0   0.00   0.0    0  0.0  0.00  0.00  0.00  0.00     7
 24 JUL    0 Sowing           0   0.00   0.0    0  0.0  0.00  0.00  0.00  0.00     8
 25 JUL    1 Germinate        0   0.00   0.0    0  0.0  0.00  0.00  0.00  0.00     9
 29 JUL    5 Emergence       25   0.00   2.2    1  4.4  0.00  0.01  0.00  0.00     1
  9 AUG   16 End Juveni     145   0.30   8.0    5  3.2  0.05  0.00  0.00  0.00     2
 17 AUG   24 Floral Ini     400   0.62  11.6   15  3.8  0.20  0.38  0.00  0.00     3
 18 SEP   56 75% Silkin    2173   0.84  23.7   57  2.6  0.67  0.00  0.00  0.00     4
 27 SEP   65 Beg Gr Fil    2644   0.71  23.7   57  2.1  0.40  0.00  0.00  0.00     5
  9 NOV  108 End Gr Fil    5756   0.71  23.7   76  1.3  0.00  0.00  0.00  0.00     6
 11 NOV  110 Maturity      5756   0.71  23.7   76  1.3  0.00  0.00  0.00  0.00    10
 11 NOV  110 Harvest       5756   0.71  23.7   76  1.3  0.00  0.00  0.00  0.00    10


*MAIN GROWTH AND DEVELOPMENT VARIABLES

@     VARIABLE                                         SIMULATED     MEASURED
      --------                                         ---------     --------
      Anthesis day (dap)                                      56          -99
      Physiological maturity day (dap)                       110          -99
      Yield at harvest maturity (kg [dm]/ha)                3185          -99
      Number at maturity (no/m2)                            1002          -99
      Unit wt at maturity (g [dm]/unit)                   0.3180          -99
      Number at maturity (no/unit)                         161.6          -99
      Tops weight at maturity (kg [dm]/ha)                  5756          -99
      By-product produced (stalk) at maturity (kg[dm]/ha    2609          -99
      Leaf area index, maximum                              1.62          -99
      Harvest index at maturity                            0.553          -99
      Grain N at maturity (kg/ha)                             55          -99
      Tops N at maturity (kg/ha)                              76          -99
      Stem N at maturity (kg/ha)                              21          -99
      Grain N at maturity (%)                                1.7          -99
      Tops weight at anthesis (kg [dm]/ha)                  2174          -99
      Tops N at anthesis (kg/ha)                              57          -99
      Leaf number per stem at maturity                     23.69          -99
      Emergence day (dap)                                      5          -99


*ENVIRONMENTAL AND STRESS FACTORS

 |-----Development Phase------|--------------------------------------Environment--------------------------------------|-----------------Stress-----------------|
                              |---------------Average--------------|-----Cumulative-----|--------Count of days--------|          (0=Min, 1=Max Stress)         |
                         Time  Temp  Temp  Temp Solar Photop                Evapo    Pot TMIN TMIN TMAX TMAX TMAX RAIN|----Water----|---Nitrogen--|-Phosphorus-|
                         Span   Max   Min  Mean   Rad  [day]    CO2   Rain  Trans     ET   <    <    >    >    >    >   Photo         Photo         Photo
                         days    邂    邂    邂 MJ/m2     hr    ppm     mm     mm     mm  0邂  2邂 30邂 32邂 34邂  0mm  synth Growth  synth Growth  synth Growth
----------------------------------------------------------------------------------------------------------------------------------------------------------------
 Emergence-End Juvenile    11  35.1  21.5  28.3  20.2  24.00  347.2    0.0    5.1   65.6    0    0   11   11   10    0  0.000  0.042  0.002  0.006  0.000  0.000
 End Juvenil-Floral Init    8  34.6  22.0  28.3  16.8  24.00  347.2    0.7    9.8   39.7    0    0    8    6    5    1  0.044  0.153  0.135  0.295  0.000  0.000
 Floral Init-End Lf Grow   32  35.0  22.8  28.9  20.8  19.73  347.3   48.0   66.9  189.0    0    0   32   28   20    9  0.592  0.652  0.012  0.020  0.000  0.000
 End Lf Grth-Beg Grn Fil    9  34.6  23.4  29.0  19.4  11.57  347.4   86.0   24.8   50.4    0    0    9    8    5    6  0.475  0.502  0.000  0.000  0.000  0.000
 Grain Filling Phase       43  30.2  21.2  25.7  17.3   2.57  347.5  261.0  178.6  198.1    0    0   21    3    1   30  0.000  0.000  0.000  0.000  0.000  0.000


 Planting to Harvest      110  33.0  22.0  27.5  18.9  12.93  347.4  395.7  292.3  583.2    0    0   88   61   45   46  0.214  0.246  0.013  0.028  0.000  0.000
----------------------------------------------------------------------------------------------------------------------------------------------------------------


*Resource Productivity
 Growing season length: 110 days 

 Precipitation during growing season       395.7 mm[rain]
   Dry Matter Productivity                  1.45 kg[DM]/m3[rain]          =   14.5 kg[DM]/ha per mm[rain]
   Yield Productivity                       0.80 kg[grain yield]/m3[rain] =    8.0 kg[yield]/ha per mm[rain]

 Evapotranspiration during growing season  292.3 mm[ET]
   Dry Matter Productivity                  1.97 kg[DM]/m3[ET]            =   19.7 kg[DM]/ha per mm[ET]
   Yield Productivity                       1.09 kg[grain yield]/m3[ET]   =   10.9 kg[yield]/ha per mm[ET]

 Transpiration during growing season       142.1 mm[EP]
   Dry Matter Productivity                  4.05 kg[DM]/m3[EP]            =   40.5 kg[DM]/ha per mm[EP]
   Yield Productivity                       2.24 kg[grain yield]/m3[EP]   =   22.4 kg[yield]/ha per mm[EP]

 N applied during growing season            162. kg[N applied]/ha
   Dry Matter Productivity                  35.5 kg[DM]/kg[N applied]
   Yield Productivity                       19.7 kg[yield]/kg[N applied]

 N uptake during growing season               87 kg[N uptake]/ha
   Dry Matter Productivity                  66.2 kg[DM]/kg[N uptake]
   Yield Productivity                       36.6 kg[yield]/kg[N uptake]

--------------------------------------------------------------------------------------------------------------

                     Maize YIELD :     3185 kg/ha    [Dry weight] 

**************************************************************************************************************

*DSSAT Cropping System Model Ver. 4.6.1.000 -release      OCT 24, 2017; 10:58:51
                                                                                
*RUN   4        : P07/29                    MZCER046 ANES1986    4              
 MODEL          : MZCER046 - Maize                                              
 EXPERIMENT     : ANES1986 MZ  Analisis a침os de bajo rendimiento Espinal       
 DATA PATH      : C:\DSSAT46\maize\                                             
 TREATMENT  4   : P07/29                    MZCER046                            
                                                                                
                                                                                
 CROP           : Maize            CULTIVAR : FNC3056          ECOTYPE :IB0001  
 STARTING DATE  : JUN 29 1986                                                   
 PLANTING DATE  : JUL 29 1986        PLANTS/m2 :  6.2     ROW SPACING :  80.cm  
 WEATHER        : CNAT   1986                                                   
 SOIL           : CCESPI2017     TEXTURE : SL    -   Suelo Espinal Calibraci    
 SOIL INITIAL C : DEPTH:100cm EXTR. H2O: 83.6mm  NO3:  0.0kg/ha  NH4:  0.0kg/ha 
 WATER BALANCE  : RAINFED                                                       
 IRRIGATION     : NOT IRRIGATED                                                 
 NITROGEN BAL.  : SOIL-N & N-UPTAKE SIMULATION; NO N-FIXATION                   
 N-FERTILIZER   :      162 kg/ha IN     6 APPLICATIONS                          
 RESIDUE/MANURE : INITIAL :     0 kg/ha ;       0 kg/ha IN     0 APPLICATIONS   
 ENVIRONM. OPT. : DAYL=    0.00  SRAD=    0.00  TMAX=    0.00  TMIN=    0.00    
                  RAIN=    0.00  CO2 =    0.00  DEW =    0.00  WIND=    0.00    
 SIMULATION OPT : WATER   :Y  NITROGEN:Y  N-FIX:N  PHOSPH :N  PESTS  :N         
                  PHOTO   :C  ET      :R  INFIL:S  HYDROL :R  SOM    :G         
                  CO2 347ppm  NSWIT   :1  EVAP :S  SOIL   :2  STEMP  :D         
 MANAGEMENT OPT : PLANTING:R  IRRIG   :N  FERT :D  RESIDUE:R  HARVEST:M         
                  WEATHER :M  TILLAGE :N                                        
                                                                                
*SUMMARY OF SOIL AND GENETIC INPUT PARAMETERS                                   
                                                                                
   SOIL LOWER UPPER   SAT  EXTR  INIT   ROOT   BULK     pH    NO3    NH4    ORG 
  DEPTH LIMIT LIMIT    SW    SW    SW   DIST   DENS                          C  
   cm   cm3/cm3    cm3/cm3    cm3/cm3         g/cm3         ugN/g  ugN/g     %  
------------------------------------------------------------------------------- 
  0-  5 0.160 0.252 0.376 0.092 0.252   1.00   1.69   6.60   0.00   0.00   0.45 
  5- 15 0.160 0.252 0.376 0.092 0.252   1.00   1.69   6.60   0.00   0.00   0.45 
 15- 30 0.160 0.252 0.376 0.092 0.252   1.00   1.69   6.60   0.00   0.00   0.45 
 30- 53 0.120 0.200 0.440 0.080 0.200   0.27   1.40   7.10   0.00   0.00   0.17 
 53- 77 0.120 0.200 0.440 0.080 0.200   0.27   1.40   7.10   0.00   0.00   0.17 
 77-100 0.120 0.200 0.440 0.080 0.200   0.27   1.40   7.10   0.00   0.00   0.17 
                                                                                
TOT-100  13.2  21.6  42.1   8.4  21.6  <--cm   -  kg/ha-->    0.0    0.0  39475 
SOIL ALBEDO    : 0.09      EVAPORATION LIMIT : 6.00         MIN. FACTOR  : 1.00 
RUNOFF CURVE # :76.00      DRAINAGE RATE     : 0.60         FERT. FACTOR : 1.00 
                                                                                
 Maize      CULTIVAR :CI0003-FNC3056            ECOTYPE :IB0001                 
 P1     : 233.00  P2     : 0.5000  P5     : 976.00                              
 G2     : 956.00  G3     :  7.500  PHINT  : 45.600                              


*SIMULATED CROP AND SOIL STATUS AT MAIN DEVELOPMENT STAGES

 RUN NO.     4     P07/29                  

        CROP GROWTH     BIOMASS         LEAF   CROP N     STRESS      STRESS                                           
   DATE  AGE STAGE        kg/ha    LAI   NUM  kg/ha  %   H2O  Nitr Phos1 Phos2  RSTG                                   
 ------  --- ----------   -----  -----  ----  ---  ---  ----  ----  ----  ----  ----                                   
 29 JUN    0 Start Sim        0   0.00   0.0    0  0.0  0.00  0.00  0.00  0.00     7
 29 JUL    0 Sowing           0   0.00   0.0    0  0.0  0.00  0.00  0.00  0.00     8
 30 JUL    1 Germinate        0   0.00   0.0    0  0.0  0.00  0.00  0.00  0.00     9
  3 AUG    5 Emergence       25   0.00   2.2    1  4.4  0.00  0.01  0.00  0.00     1
 14 AUG   16 End Juveni     149   0.31   8.1    5  3.3  0.07  0.00  0.00  0.00     2
 22 AUG   24 Floral Ini     590   0.95  11.6   21  3.6  0.06  0.04  0.00  0.00     3
 23 SEP   56 75% Silkin    2070   0.77  24.0   48  2.3  0.73  0.00  0.00  0.00     4
  2 OCT   65 Beg Gr Fil    3013   0.77  24.0   48  1.6  0.00  0.00  0.00  0.00     5
 13 NOV  107 End Gr Fil    7756   0.77  24.0  104  1.3  0.00  0.00  0.00  0.00     6
 16 NOV  110 Maturity      7756   0.77  24.0  104  1.3  0.00  0.00  0.00  0.00    10
 16 NOV  110 Harvest       7756   0.77  24.0  104  1.3  0.00  0.00  0.00  0.00    10


*MAIN GROWTH AND DEVELOPMENT VARIABLES

@     VARIABLE                                         SIMULATED     MEASURED
      --------                                         ---------     --------
      Anthesis day (dap)                                      56          -99
      Physiological maturity day (dap)                       110          -99
      Yield at harvest maturity (kg [dm]/ha)                4862          -99
      Number at maturity (no/m2)                            1577          -99
      Unit wt at maturity (g [dm]/unit)                   0.3082          -99
      Number at maturity (no/unit)                         254.4          -99
      Tops weight at maturity (kg [dm]/ha)                  7756          -99
      By-product produced (stalk) at maturity (kg[dm]/ha    2930          -99
      Leaf area index, maximum                              1.43          -99
      Harvest index at maturity                            0.627          -99
      Grain N at maturity (kg/ha)                             84          -99
      Tops N at maturity (kg/ha)                             104          -99
      Stem N at maturity (kg/ha)                              20          -99
      Grain N at maturity (%)                                1.7          -99
      Tops weight at anthesis (kg [dm]/ha)                  1949          -99
      Tops N at anthesis (kg/ha)                              48          -99
      Leaf number per stem at maturity                     23.98          -99
      Emergence day (dap)                                      5          -99


*ENVIRONMENTAL AND STRESS FACTORS

 |-----Development Phase------|--------------------------------------Environment--------------------------------------|-----------------Stress-----------------|
                              |---------------Average--------------|-----Cumulative-----|--------Count of days--------|          (0=Min, 1=Max Stress)         |
                         Time  Temp  Temp  Temp Solar Photop                Evapo    Pot TMIN TMIN TMAX TMAX TMAX RAIN|----Water----|---Nitrogen--|-Phosphorus-|
                         Span   Max   Min  Mean   Rad  [day]    CO2   Rain  Trans     ET   <    <    >    >    >    >   Photo         Photo         Photo
                         days    邂    邂    邂 MJ/m2     hr    ppm     mm     mm     mm  0邂  2邂 30邂 32邂 34邂  0mm  synth Growth  synth Growth  synth Growth
----------------------------------------------------------------------------------------------------------------------------------------------------------------
 Emergence-End Juvenile    11  35.7  22.1  28.9  19.4  24.00  347.2    0.0    4.7   65.2    0    0   11   11   10    0  0.000  0.045  0.002  0.005  0.000  0.000
 End Juvenil-Floral Init    8  32.8  21.9  27.4  17.7  24.00  347.3   30.3   20.5   39.4    0    0    8    4    2    5  0.025  0.095  0.015  0.036  0.000  0.000
 Floral Init-End Lf Grow   32  35.5  23.3  29.4  20.9  17.89  347.4   38.8   57.1  193.5    0    0   32   30   24    8  0.662  0.734  0.000  0.000  0.000  0.000
 End Lf Grth-Beg Grn Fil    9  31.0  21.3  26.1  17.5   9.84  347.4  108.4   42.2   42.2    0    0    6    4    1    7  0.000  0.000  0.000  0.000  0.000  0.000
 Grain Filling Phase       42  30.5  21.5  26.0  17.7   1.54  347.5  218.2  169.9  196.8    0    0   23    4    0   26  0.000  0.000  0.000  0.000  0.000  0.000


 Planting to Harvest      110  32.9  22.1  27.5  18.9  11.84  347.4  395.7  303.2  580.5    0    0   88   60   41   46  0.194  0.225  0.001  0.003  0.000  0.000
----------------------------------------------------------------------------------------------------------------------------------------------------------------


*Resource Productivity
 Growing season length: 110 days 

 Precipitation during growing season       395.7 mm[rain]
   Dry Matter Productivity                  1.96 kg[DM]/m3[rain]          =   19.6 kg[DM]/ha per mm[rain]
   Yield Productivity                       1.23 kg[grain yield]/m3[rain] =   12.3 kg[yield]/ha per mm[rain]

 Evapotranspiration during growing season  303.2 mm[ET]
   Dry Matter Productivity                  2.56 kg[DM]/m3[ET]            =   25.6 kg[DM]/ha per mm[ET]
   Yield Productivity                       1.60 kg[grain yield]/m3[ET]   =   16.0 kg[yield]/ha per mm[ET]

 Transpiration during growing season       153.1 mm[EP]
   Dry Matter Productivity                  5.07 kg[DM]/m3[EP]            =   50.7 kg[DM]/ha per mm[EP]
   Yield Productivity                       3.18 kg[grain yield]/m3[EP]   =   31.8 kg[yield]/ha per mm[EP]

 N applied during growing season            162. kg[N applied]/ha
   Dry Matter Productivity                  47.9 kg[DM]/kg[N applied]
   Yield Productivity                       30.0 kg[yield]/kg[N applied]

 N uptake during growing season              113 kg[N uptake]/ha
   Dry Matter Productivity                  68.6 kg[DM]/kg[N uptake]
   Yield Productivity                       43.0 kg[yield]/kg[N uptake]

--------------------------------------------------------------------------------------------------------------

                     Maize YIELD :     4862 kg/ha    [Dry weight] 

**************************************************************************************************************

*DSSAT Cropping System Model Ver. 4.6.1.000 -release      OCT 24, 2017; 10:58:51
                                                                                
*RUN   5        : P08/03                    MZCER046 ANES1986    5              
 MODEL          : MZCER046 - Maize                                              
 EXPERIMENT     : ANES1986 MZ  Analisis a침os de bajo rendimiento Espinal       
 DATA PATH      : C:\DSSAT46\maize\                                             
 TREATMENT  5   : P08/03                    MZCER046                            
                                                                                
                                                                                
 CROP           : Maize            CULTIVAR : FNC3056          ECOTYPE :IB0001  
 STARTING DATE  : JUL  4 1986                                                   
 PLANTING DATE  : AUG  3 1986        PLANTS/m2 :  6.2     ROW SPACING :  80.cm  
 WEATHER        : CNAT   1986                                                   
 SOIL           : CCESPI2017     TEXTURE : SL    -   Suelo Espinal Calibraci    
 SOIL INITIAL C : DEPTH:100cm EXTR. H2O: 83.6mm  NO3:  0.0kg/ha  NH4:  0.0kg/ha 
 WATER BALANCE  : RAINFED                                                       
 IRRIGATION     : NOT IRRIGATED                                                 
 NITROGEN BAL.  : SOIL-N & N-UPTAKE SIMULATION; NO N-FIXATION                   
 N-FERTILIZER   :      162 kg/ha IN     6 APPLICATIONS                          
 RESIDUE/MANURE : INITIAL :     0 kg/ha ;       0 kg/ha IN     0 APPLICATIONS   
 ENVIRONM. OPT. : DAYL=    0.00  SRAD=    0.00  TMAX=    0.00  TMIN=    0.00    
                  RAIN=    0.00  CO2 =    0.00  DEW =    0.00  WIND=    0.00    
 SIMULATION OPT : WATER   :Y  NITROGEN:Y  N-FIX:N  PHOSPH :N  PESTS  :N         
                  PHOTO   :C  ET      :R  INFIL:S  HYDROL :R  SOM    :G         
                  CO2 347ppm  NSWIT   :1  EVAP :S  SOIL   :2  STEMP  :D         
 MANAGEMENT OPT : PLANTING:R  IRRIG   :N  FERT :D  RESIDUE:R  HARVEST:M         
                  WEATHER :M  TILLAGE :N                                        
                                                                                
*SUMMARY OF SOIL AND GENETIC INPUT PARAMETERS                                   
                                                                                
   SOIL LOWER UPPER   SAT  EXTR  INIT   ROOT   BULK     pH    NO3    NH4    ORG 
  DEPTH LIMIT LIMIT    SW    SW    SW   DIST   DENS                          C  
   cm   cm3/cm3    cm3/cm3    cm3/cm3         g/cm3         ugN/g  ugN/g     %  
------------------------------------------------------------------------------- 
  0-  5 0.160 0.252 0.376 0.092 0.252   1.00   1.69   6.60   0.00   0.00   0.45 
  5- 15 0.160 0.252 0.376 0.092 0.252   1.00   1.69   6.60   0.00   0.00   0.45 
 15- 30 0.160 0.252 0.376 0.092 0.252   1.00   1.69   6.60   0.00   0.00   0.45 
 30- 53 0.120 0.200 0.440 0.080 0.200   0.27   1.40   7.10   0.00   0.00   0.17 
 53- 77 0.120 0.200 0.440 0.080 0.200   0.27   1.40   7.10   0.00   0.00   0.17 
 77-100 0.120 0.200 0.440 0.080 0.200   0.27   1.40   7.10   0.00   0.00   0.17 
                                                                                
TOT-100  13.2  21.6  42.1   8.4  21.6  <--cm   -  kg/ha-->    0.0    0.0  39475 
SOIL ALBEDO    : 0.09      EVAPORATION LIMIT : 6.00         MIN. FACTOR  : 1.00 
RUNOFF CURVE # :76.00      DRAINAGE RATE     : 0.60         FERT. FACTOR : 1.00 
                                                                                
 Maize      CULTIVAR :CI0003-FNC3056            ECOTYPE :IB0001                 
 P1     : 233.00  P2     : 0.5000  P5     : 976.00                              
 G2     : 956.00  G3     :  7.500  PHINT  : 45.600                              


*SIMULATED CROP AND SOIL STATUS AT MAIN DEVELOPMENT STAGES

 RUN NO.     5     P08/03                  

        CROP GROWTH     BIOMASS         LEAF   CROP N     STRESS      STRESS                                           
   DATE  AGE STAGE        kg/ha    LAI   NUM  kg/ha  %   H2O  Nitr Phos1 Phos2  RSTG                                   
 ------  --- ----------   -----  -----  ----  ---  ---  ----  ----  ----  ----  ----                                   
  4 JUL    0 Start Sim        0   0.00   0.0    0  0.0  0.00  0.00  0.00  0.00     7
  3 AUG    0 Sowing           0   0.00   0.0    0  0.0  0.00  0.00  0.00  0.00     8
  4 AUG    1 Germinate        0   0.00   0.0    0  0.0  0.00  0.00  0.00  0.00     9
  8 AUG    5 Emergence       25   0.00   2.2    1  4.4  0.00  0.01  0.00  0.00     1
 19 AUG   16 End Juveni     141   0.29   7.8    4  3.2  0.04  0.00  0.00  0.00     2
 26 AUG   23 Floral Ini     550   0.90  11.0   20  3.6  0.00  0.00  0.00  0.00     3
 26 SEP   54 75% Silkin    2165   0.88  22.6   45  2.1  0.67  0.00  0.00  0.00     4
  6 OCT   64 Beg Gr Fil    3307   0.88  22.6   45  1.4  0.00  0.00  0.00  0.00     5
 16 NOV  105 End Gr Fil    8161   0.80  22.6  107  1.3  0.00  0.00  0.00  0.00     6
 19 NOV  108 Maturity      8161   0.80  22.6  107  1.3  0.00  0.00  0.00  0.00    10
 19 NOV  108 Harvest       8161   0.80  22.6  107  1.3  0.00  0.00  0.00  0.00    10


*MAIN GROWTH AND DEVELOPMENT VARIABLES

@     VARIABLE                                         SIMULATED     MEASURED
      --------                                         ---------     --------
      Anthesis day (dap)                                      54          -99
      Physiological maturity day (dap)                       108          -99
      Yield at harvest maturity (kg [dm]/ha)                4962          -99
      Number at maturity (no/m2)                            1659          -99
      Unit wt at maturity (g [dm]/unit)                   0.2991          -99
      Number at maturity (no/unit)                         267.6          -99
      Tops weight at maturity (kg [dm]/ha)                  8161          -99
      By-product produced (stalk) at maturity (kg[dm]/ha    3233          -99
      Leaf area index, maximum                              1.34          -99
      Harvest index at maturity                            0.608          -99
      Grain N at maturity (kg/ha)                             86          -99
      Tops N at maturity (kg/ha)                             107          -99
      Stem N at maturity (kg/ha)                              21          -99
      Grain N at maturity (%)                                1.7          -99
      Tops weight at anthesis (kg [dm]/ha)                  2050          -99
      Tops N at anthesis (kg/ha)                              44          -99
      Leaf number per stem at maturity                     22.64          -99
      Emergence day (dap)                                      5          -99


*ENVIRONMENTAL AND STRESS FACTORS

 |-----Development Phase------|--------------------------------------Environment--------------------------------------|-----------------Stress-----------------|
                              |---------------Average--------------|-----Cumulative-----|--------Count of days--------|          (0=Min, 1=Max Stress)         |
                         Time  Temp  Temp  Temp Solar Photop                Evapo    Pot TMIN TMIN TMAX TMAX TMAX RAIN|----Water----|---Nitrogen--|-Phosphorus-|
                         Span   Max   Min  Mean   Rad  [day]    CO2   Rain  Trans     ET   <    <    >    >    >    >   Photo         Photo         Photo
                         days    邂    邂    邂 MJ/m2     hr    ppm     mm     mm     mm  0邂  2邂 30邂 32邂 34邂  0mm  synth Growth  synth Growth  synth Growth
----------------------------------------------------------------------------------------------------------------------------------------------------------------
 Emergence-End Juvenile    11  34.4  21.5  28.0  17.8  24.00  347.2   19.1    9.3   58.9    0    0   11    8    6    2  0.000  0.039  0.002  0.004  0.000  0.000
 End Juvenil-Floral Init    7  33.7  22.1  27.9  20.9  24.00  347.3   18.6   24.8   41.9    0    0    7    6    3    5  0.000  0.000  0.001  0.002  0.000  0.000
 Floral Init-End Lf Grow   31  35.4  23.3  29.3  20.6  16.43  347.4   85.2   63.1  186.2    0    0   31   28   22    8  0.597  0.667  0.000  0.000  0.000  0.000
 End Lf Grth-Beg Grn Fil   10  30.1  21.1  25.6  16.8   8.55  347.4  104.5   44.2   44.2    0    0    5    2    1    8  0.000  0.000  0.000  0.000  0.000  0.000
 Grain Filling Phase       41  30.7  21.6  26.1  17.7   0.86  347.5  168.3  163.5  191.6    0    0   24    6    0   23  0.000  0.000  0.000  0.000  0.000  0.000


 Planting to Harvest      108  32.8  22.2  27.5  18.9  10.94  347.4  397.7  314.5  570.8    0    0   86   57   38   47  0.171  0.195  0.000  0.001  0.000  0.000
----------------------------------------------------------------------------------------------------------------------------------------------------------------


*Resource Productivity
 Growing season length: 108 days 

 Precipitation during growing season       397.7 mm[rain]
   Dry Matter Productivity                  2.05 kg[DM]/m3[rain]          =   20.5 kg[DM]/ha per mm[rain]
   Yield Productivity                       1.25 kg[grain yield]/m3[rain] =   12.5 kg[yield]/ha per mm[rain]

 Evapotranspiration during growing season  314.5 mm[ET]
   Dry Matter Productivity                  2.59 kg[DM]/m3[ET]            =   25.9 kg[DM]/ha per mm[ET]
   Yield Productivity                       1.58 kg[grain yield]/m3[ET]   =   15.8 kg[yield]/ha per mm[ET]

 Transpiration during growing season       163.6 mm[EP]
   Dry Matter Productivity                  4.99 kg[DM]/m3[EP]            =   49.9 kg[DM]/ha per mm[EP]
   Yield Productivity                       3.03 kg[grain yield]/m3[EP]   =   30.3 kg[yield]/ha per mm[EP]

 N applied during growing season            162. kg[N applied]/ha
   Dry Matter Productivity                  50.4 kg[DM]/kg[N applied]
   Yield Productivity                       30.6 kg[yield]/kg[N applied]

 N uptake during growing season              117 kg[N uptake]/ha
   Dry Matter Productivity                  69.8 kg[DM]/kg[N uptake]
   Yield Productivity                       42.4 kg[yield]/kg[N uptake]

--------------------------------------------------------------------------------------------------------------

                     Maize YIELD :     4962 kg/ha    [Dry weight] 

**************************************************************************************************************

*DSSAT Cropping System Model Ver. 4.6.1.000 -release      OCT 24, 2017; 10:58:51
                                                                                
*RUN   6        : P08/08                    MZCER046 ANES1986    6              
 MODEL          : MZCER046 - Maize                                              
 EXPERIMENT     : ANES1986 MZ  Analisis a침os de bajo rendimiento Espinal       
 DATA PATH      : C:\DSSAT46\maize\                                             
 TREATMENT  6   : P08/08                    MZCER046                            
                                                                                
                                                                                
 CROP           : Maize            CULTIVAR : FNC3056          ECOTYPE :IB0001  
 STARTING DATE  : JUL  9 1986                                                   
 PLANTING DATE  : AUG  8 1986        PLANTS/m2 :  6.2     ROW SPACING :  80.cm  
 WEATHER        : CNAT   1986                                                   
 SOIL           : CCESPI2017     TEXTURE : SL    -   Suelo Espinal Calibraci    
 SOIL INITIAL C : DEPTH:100cm EXTR. H2O: 83.6mm  NO3:  0.0kg/ha  NH4:  0.0kg/ha 
 WATER BALANCE  : RAINFED                                                       
 IRRIGATION     : NOT IRRIGATED                                                 
 NITROGEN BAL.  : SOIL-N & N-UPTAKE SIMULATION; NO N-FIXATION                   
 N-FERTILIZER   :      162 kg/ha IN     6 APPLICATIONS                          
 RESIDUE/MANURE : INITIAL :     0 kg/ha ;       0 kg/ha IN     0 APPLICATIONS   
 ENVIRONM. OPT. : DAYL=    0.00  SRAD=    0.00  TMAX=    0.00  TMIN=    0.00    
                  RAIN=    0.00  CO2 =    0.00  DEW =    0.00  WIND=    0.00    
 SIMULATION OPT : WATER   :Y  NITROGEN:Y  N-FIX:N  PHOSPH :N  PESTS  :N         
                  PHOTO   :C  ET      :R  INFIL:S  HYDROL :R  SOM    :G         
                  CO2 347ppm  NSWIT   :1  EVAP :S  SOIL   :2  STEMP  :D         
 MANAGEMENT OPT : PLANTING:R  IRRIG   :N  FERT :D  RESIDUE:R  HARVEST:M         
                  WEATHER :M  TILLAGE :N                                        
                                                                                
*SUMMARY OF SOIL AND GENETIC INPUT PARAMETERS                                   
                                                                                
   SOIL LOWER UPPER   SAT  EXTR  INIT   ROOT   BULK     pH    NO3    NH4    ORG 
  DEPTH LIMIT LIMIT    SW    SW    SW   DIST   DENS                          C  
   cm   cm3/cm3    cm3/cm3    cm3/cm3         g/cm3         ugN/g  ugN/g     %  
------------------------------------------------------------------------------- 
  0-  5 0.160 0.252 0.376 0.092 0.252   1.00   1.69   6.60   0.00   0.00   0.45 
  5- 15 0.160 0.252 0.376 0.092 0.252   1.00   1.69   6.60   0.00   0.00   0.45 
 15- 30 0.160 0.252 0.376 0.092 0.252   1.00   1.69   6.60   0.00   0.00   0.45 
 30- 53 0.120 0.200 0.440 0.080 0.200   0.27   1.40   7.10   0.00   0.00   0.17 
 53- 77 0.120 0.200 0.440 0.080 0.200   0.27   1.40   7.10   0.00   0.00   0.17 
 77-100 0.120 0.200 0.440 0.080 0.200   0.27   1.40   7.10   0.00   0.00   0.17 
                                                                                
TOT-100  13.2  21.6  42.1   8.4  21.6  <--cm   -  kg/ha-->    0.0    0.0  39475 
SOIL ALBEDO    : 0.09      EVAPORATION LIMIT : 6.00         MIN. FACTOR  : 1.00 
RUNOFF CURVE # :76.00      DRAINAGE RATE     : 0.60         FERT. FACTOR : 1.00 
                                                                                
 Maize      CULTIVAR :CI0003-FNC3056            ECOTYPE :IB0001                 
 P1     : 233.00  P2     : 0.5000  P5     : 976.00                              
 G2     : 956.00  G3     :  7.500  PHINT  : 45.600                              


*SIMULATED CROP AND SOIL STATUS AT MAIN DEVELOPMENT STAGES

 RUN NO.     6     P08/08                  

        CROP GROWTH     BIOMASS         LEAF   CROP N     STRESS      STRESS                                           
   DATE  AGE STAGE        kg/ha    LAI   NUM  kg/ha  %   H2O  Nitr Phos1 Phos2  RSTG                                   
 ------  --- ----------   -----  -----  ----  ---  ---  ----  ----  ----  ----  ----                                   
  9 JUL    0 Start Sim        0   0.00   0.0    0  0.0  0.00  0.00  0.00  0.00     7
  8 AUG    0 Sowing           0   0.00   0.0    0  0.0  0.00  0.00  0.00  0.00     8
  9 AUG    1 Germinate        0   0.00   0.0    0  0.0  0.00  0.00  0.00  0.00     9
 13 AUG    5 Emergence       25   0.00   2.1    1  4.4  0.00  0.01  0.00  0.00     1
 24 AUG   16 End Juveni     136   0.28   7.7    4  3.3  0.00  0.00  0.00  0.00     2
 30 AUG   22 Floral Ini     445   0.75  10.6   17  3.7  0.08  0.00  0.00  0.00     3
 30 SEP   53 75% Silkin    2127   0.89  22.2   44  2.1  0.58  0.00  0.00  0.00     4
  9 OCT   62 Beg Gr Fil    3358   0.89  22.2   46  1.4  0.00  0.00  0.00  0.00     5
 20 NOV  104 End Gr Fil    8841   0.66  22.2  118  1.3  0.00  0.00  0.00  0.00     6
 22 NOV  106 Maturity      8841   0.66  22.2  118  1.3  0.00  0.00  0.00  0.00    10
 22 NOV  106 Harvest       8841   0.66  22.2  118  1.3  0.00  0.00  0.00  0.00    10


*MAIN GROWTH AND DEVELOPMENT VARIABLES

@     VARIABLE                                         SIMULATED     MEASURED
      --------                                         ---------     --------
      Anthesis day (dap)                                      53          -99
      Physiological maturity day (dap)                       106          -99
      Yield at harvest maturity (kg [dm]/ha)                5609          -99
      Number at maturity (no/m2)                            1846          -99
      Unit wt at maturity (g [dm]/unit)                   0.3038          -99
      Number at maturity (no/unit)                         297.7          -99
      Tops weight at maturity (kg [dm]/ha)                  8841          -99
      By-product produced (stalk) at maturity (kg[dm]/ha    3261          -99
      Leaf area index, maximum                              1.17          -99
      Harvest index at maturity                            0.634          -99
      Grain N at maturity (kg/ha)                             97          -99
      Tops N at maturity (kg/ha)                             118          -99
      Stem N at maturity (kg/ha)                              21          -99
      Grain N at maturity (%)                                1.7          -99
      Tops weight at anthesis (kg [dm]/ha)                  2002          -99
      Tops N at anthesis (kg/ha)                              43          -99
      Leaf number per stem at maturity                     22.16          -99
      Emergence day (dap)                                      5          -99


*ENVIRONMENTAL AND STRESS FACTORS

 |-----Development Phase------|--------------------------------------Environment--------------------------------------|-----------------Stress-----------------|
                              |---------------Average--------------|-----Cumulative-----|--------Count of days--------|          (0=Min, 1=Max Stress)         |
                         Time  Temp  Temp  Temp Solar Photop                Evapo    Pot TMIN TMIN TMAX TMAX TMAX RAIN|----Water----|---Nitrogen--|-Phosphorus-|
                         Span   Max   Min  Mean   Rad  [day]    CO2   Rain  Trans     ET   <    <    >    >    >    >   Photo         Photo         Photo
                         days    邂    邂    邂 MJ/m2     hr    ppm     mm     mm     mm  0邂  2邂 30邂 32邂 34邂  0mm  synth Growth  synth Growth  synth Growth
----------------------------------------------------------------------------------------------------------------------------------------------------------------
 Emergence-End Juvenile    11  33.1  21.9  27.5  18.4  24.00  347.3   30.3   22.6   59.5    0    0   11    7    3    5  0.000  0.000  0.002  0.005  0.000  0.000
 End Juvenil-Floral Init    6  35.0  22.4  28.7  21.9  23.87  347.3    7.4   18.4   39.0    0    0    6    6    4    2  0.000  0.000  0.000  0.001  0.000  0.000
 Floral Init-End Lf Grow   31  34.6  23.0  28.8  19.5  14.61  347.4  126.1   63.5  176.0    0    0   28   25   19   12  0.530  0.591  0.000  0.000  0.000  0.000
 End Lf Grth-Beg Grn Fil    9  30.9  21.0  26.0  19.0   7.16  347.4   97.2   45.3   45.3    0    0    7    2    1    7  0.000  0.000  0.000  0.000  0.000  0.000
 Grain Filling Phase       42  30.8  21.8  26.3  17.9   0.42  347.6  136.7  159.7  198.7    0    0   25    7    1   21  0.000  0.000  0.000  0.000  0.000  0.000


 Planting to Harvest      106  32.7  22.1  27.4  18.9  10.02  347.4  397.7  315.5  560.3    0    0   84   53   33   47  0.155  0.173  0.000  0.001  0.000  0.000
----------------------------------------------------------------------------------------------------------------------------------------------------------------


*Resource Productivity
 Growing season length: 106 days 

 Precipitation during growing season       397.7 mm[rain]
   Dry Matter Productivity                  2.22 kg[DM]/m3[rain]          =   22.2 kg[DM]/ha per mm[rain]
   Yield Productivity                       1.41 kg[grain yield]/m3[rain] =   14.1 kg[yield]/ha per mm[rain]

 Evapotranspiration during growing season  315.5 mm[ET]
   Dry Matter Productivity                  2.80 kg[DM]/m3[ET]            =   28.0 kg[DM]/ha per mm[ET]
   Yield Productivity                       1.78 kg[grain yield]/m3[ET]   =   17.8 kg[yield]/ha per mm[ET]

 Transpiration during growing season       159.6 mm[EP]
   Dry Matter Productivity                  5.54 kg[DM]/m3[EP]            =   55.4 kg[DM]/ha per mm[EP]
   Yield Productivity                       3.52 kg[grain yield]/m3[EP]   =   35.2 kg[yield]/ha per mm[EP]

 N applied during growing season            162. kg[N applied]/ha
   Dry Matter Productivity                  54.6 kg[DM]/kg[N applied]
   Yield Productivity                       34.6 kg[yield]/kg[N applied]

 N uptake during growing season              126 kg[N uptake]/ha
   Dry Matter Productivity                  70.2 kg[DM]/kg[N uptake]
   Yield Productivity                       44.5 kg[yield]/kg[N uptake]

--------------------------------------------------------------------------------------------------------------

                     Maize YIELD :     5609 kg/ha    [Dry weight] 

**************************************************************************************************************

*DSSAT Cropping System Model Ver. 4.6.1.000 -release      OCT 24, 2017; 10:58:51
                                                                                
*RUN   7        : P08/13                    MZCER046 ANES1986    7              
 MODEL          : MZCER046 - Maize                                              
 EXPERIMENT     : ANES1986 MZ  Analisis a침os de bajo rendimiento Espinal       
 DATA PATH      : C:\DSSAT46\maize\                                             
 TREATMENT  7   : P08/13                    MZCER046                            
                                                                                
                                                                                
 CROP           : Maize            CULTIVAR : FNC3056          ECOTYPE :IB0001  
 STARTING DATE  : JUL 14 1986                                                   
 PLANTING DATE  : AUG 13 1986        PLANTS/m2 :  6.2     ROW SPACING :  80.cm  
 WEATHER        : CNAT   1986                                                   
 SOIL           : CCESPI2017     TEXTURE : SL    -   Suelo Espinal Calibraci    
 SOIL INITIAL C : DEPTH:100cm EXTR. H2O: 83.6mm  NO3:  0.0kg/ha  NH4:  0.0kg/ha 
 WATER BALANCE  : RAINFED                                                       
 IRRIGATION     : NOT IRRIGATED                                                 
 NITROGEN BAL.  : SOIL-N & N-UPTAKE SIMULATION; NO N-FIXATION                   
 N-FERTILIZER   :      162 kg/ha IN     6 APPLICATIONS                          
 RESIDUE/MANURE : INITIAL :     0 kg/ha ;       0 kg/ha IN     0 APPLICATIONS   
 ENVIRONM. OPT. : DAYL=    0.00  SRAD=    0.00  TMAX=    0.00  TMIN=    0.00    
                  RAIN=    0.00  CO2 =    0.00  DEW =    0.00  WIND=    0.00    
 SIMULATION OPT : WATER   :Y  NITROGEN:Y  N-FIX:N  PHOSPH :N  PESTS  :N         
                  PHOTO   :C  ET      :R  INFIL:S  HYDROL :R  SOM    :G         
                  CO2 347ppm  NSWIT   :1  EVAP :S  SOIL   :2  STEMP  :D         
 MANAGEMENT OPT : PLANTING:R  IRRIG   :N  FERT :D  RESIDUE:R  HARVEST:M         
                  WEATHER :M  TILLAGE :N                                        
                                                                                
*SUMMARY OF SOIL AND GENETIC INPUT PARAMETERS                                   
                                                                                
   SOIL LOWER UPPER   SAT  EXTR  INIT   ROOT   BULK     pH    NO3    NH4    ORG 
  DEPTH LIMIT LIMIT    SW    SW    SW   DIST   DENS                          C  
   cm   cm3/cm3    cm3/cm3    cm3/cm3         g/cm3         ugN/g  ugN/g     %  
------------------------------------------------------------------------------- 
  0-  5 0.160 0.252 0.376 0.092 0.252   1.00   1.69   6.60   0.00   0.00   0.45 
  5- 15 0.160 0.252 0.376 0.092 0.252   1.00   1.69   6.60   0.00   0.00   0.45 
 15- 30 0.160 0.252 0.376 0.092 0.252   1.00   1.69   6.60   0.00   0.00   0.45 
 30- 53 0.120 0.200 0.440 0.080 0.200   0.27   1.40   7.10   0.00   0.00   0.17 
 53- 77 0.120 0.200 0.440 0.080 0.200   0.27   1.40   7.10   0.00   0.00   0.17 
 77-100 0.120 0.200 0.440 0.080 0.200   0.27   1.40   7.10   0.00   0.00   0.17 
                                                                                
TOT-100  13.2  21.6  42.1   8.4  21.6  <--cm   -  kg/ha-->    0.0    0.0  39475 
SOIL ALBEDO    : 0.09      EVAPORATION LIMIT : 6.00         MIN. FACTOR  : 1.00 
RUNOFF CURVE # :76.00      DRAINAGE RATE     : 0.60         FERT. FACTOR : 1.00 
                                                                                
 Maize      CULTIVAR :CI0003-FNC3056            ECOTYPE :IB0001                 
 P1     : 233.00  P2     : 0.5000  P5     : 976.00                              
 G2     : 956.00  G3     :  7.500  PHINT  : 45.600                              


*SIMULATED CROP AND SOIL STATUS AT MAIN DEVELOPMENT STAGES

 RUN NO.     7     P08/13                  

        CROP GROWTH     BIOMASS         LEAF   CROP N     STRESS      STRESS                                           
   DATE  AGE STAGE        kg/ha    LAI   NUM  kg/ha  %   H2O  Nitr Phos1 Phos2  RSTG                                   
 ------  --- ----------   -----  -----  ----  ---  ---  ----  ----  ----  ----  ----                                   
 14 JUL    0 Start Sim        0   0.00   0.0    0  0.0  0.00  0.00  0.00  0.00     7
 13 AUG    0 Sowing           0   0.00   0.0    0  0.0  0.00  0.00  0.00  0.00     8
 14 AUG    1 Germinate        0   0.00   0.0    0  0.0  0.00  0.00  0.00  0.00     9
 18 AUG    5 Emergence       25   0.00   2.1    1  4.4  0.00  0.01  0.00  0.00     1
 29 AUG   16 End Juveni     151   0.31   7.9    5  3.2  0.00  0.00  0.00  0.00     2
  3 SEP   21 Floral Ini     399   0.70  10.2   15  3.6  0.07  0.00  0.00  0.00     3
  3 OCT   51 75% Silkin    2245   0.94  21.2   46  2.0  0.51  0.00  0.00  0.00     4
 12 OCT   60 Beg Gr Fil    3449   0.94  21.2   47  1.4  0.00  0.00  0.00  0.00     5
 22 NOV  101 End Gr Fil    8647   0.63  21.2  114  1.3  0.00  0.00  0.00  0.00     6
 25 NOV  104 Maturity      8647   0.63  21.2  114  1.3  0.00  0.00  0.00  0.00    10
 25 NOV  104 Harvest       8647   0.63  21.2  114  1.3  0.00  0.00  0.00  0.00    10


*MAIN GROWTH AND DEVELOPMENT VARIABLES

@     VARIABLE                                         SIMULATED     MEASURED
      --------                                         ---------     --------
      Anthesis day (dap)                                      51          -99
      Physiological maturity day (dap)                       104          -99
      Yield at harvest maturity (kg [dm]/ha)                5333          -99
      Number at maturity (no/m2)                            1805          -99
      Unit wt at maturity (g [dm]/unit)                   0.2955          -99
      Number at maturity (no/unit)                         291.1          -99
      Tops weight at maturity (kg [dm]/ha)                  8647          -99
      By-product produced (stalk) at maturity (kg[dm]/ha    3339          -99
      Leaf area index, maximum                              0.94          -99
      Harvest index at maturity                            0.617          -99
      Grain N at maturity (kg/ha)                             92          -99
      Tops N at maturity (kg/ha)                             114          -99
      Stem N at maturity (kg/ha)                              21          -99
      Grain N at maturity (%)                                1.7          -99
      Tops weight at anthesis (kg [dm]/ha)                  2104          -99
      Tops N at anthesis (kg/ha)                              44          -99
      Leaf number per stem at maturity                     21.25          -99
      Emergence day (dap)                                      5          -99


*ENVIRONMENTAL AND STRESS FACTORS

 |-----Development Phase------|--------------------------------------Environment--------------------------------------|-----------------Stress-----------------|
                              |---------------Average--------------|-----Cumulative-----|--------Count of days--------|          (0=Min, 1=Max Stress)         |
                         Time  Temp  Temp  Temp Solar Photop                Evapo    Pot TMIN TMIN TMAX TMAX TMAX RAIN|----Water----|---Nitrogen--|-Phosphorus-|
                         Span   Max   Min  Mean   Rad  [day]    CO2   Rain  Trans     ET   <    <    >    >    >    >   Photo         Photo         Photo
                         days    邂    邂    邂 MJ/m2     hr    ppm     mm     mm     mm  0邂  2邂 30邂 32邂 34邂  0mm  synth Growth  synth Growth  synth Growth
----------------------------------------------------------------------------------------------------------------------------------------------------------------
 Emergence-End Juvenile    11  34.1  22.2  28.1  21.4  24.00  347.3   18.6   30.7   71.4    0    0   11    9    5    5  0.000  0.000  0.003  0.006  0.000  0.000
 End Juvenil-Floral Init    5  33.8  23.7  28.8  20.3  20.99  347.3    8.4   12.9   29.4    0    0    5    3    3    1  0.000  0.074  0.001  0.001  0.000  0.000
 Floral Init-End Lf Grow   30  34.4  22.7  28.5  19.3  13.21  347.4  131.4   70.7  169.5    0    0   26   24   18   12  0.464  0.510  0.000  0.000  0.000  0.000
 End Lf Grth-Beg Grn Fil    9  30.6  21.5  26.0  17.8   5.79  347.4   83.9   42.1   42.1    0    0    6    1    0    7  0.000  0.000  0.000  0.000  0.000  0.000
 Grain Filling Phase       41  30.9  21.8  26.4  18.2   0.11  347.6  136.3  153.8  197.0    0    0   26    8    1   20  0.000  0.000  0.000  0.000  0.000  0.000


 Planting to Harvest      104  32.5  22.2  27.3  18.8   9.06  347.5  419.7  320.6  547.1    0    0   81   49   29   48  0.134  0.151  0.000  0.001  0.000  0.000
----------------------------------------------------------------------------------------------------------------------------------------------------------------


*Resource Productivity
 Growing season length: 104 days 

 Precipitation during growing season       419.7 mm[rain]
   Dry Matter Productivity                  2.06 kg[DM]/m3[rain]          =   20.6 kg[DM]/ha per mm[rain]
   Yield Productivity                       1.27 kg[grain yield]/m3[rain] =   12.7 kg[yield]/ha per mm[rain]

 Evapotranspiration during growing season  320.6 mm[ET]
   Dry Matter Productivity                  2.70 kg[DM]/m3[ET]            =   27.0 kg[DM]/ha per mm[ET]
   Yield Productivity                       1.66 kg[grain yield]/m3[ET]   =   16.6 kg[yield]/ha per mm[ET]

 Transpiration during growing season       161.1 mm[EP]
   Dry Matter Productivity                  5.37 kg[DM]/m3[EP]            =   53.7 kg[DM]/ha per mm[EP]
   Yield Productivity                       3.31 kg[grain yield]/m3[EP]   =   33.1 kg[yield]/ha per mm[EP]

 N applied during growing season            162. kg[N applied]/ha
   Dry Matter Productivity                  53.4 kg[DM]/kg[N applied]
   Yield Productivity                       32.9 kg[yield]/kg[N applied]

 N uptake during growing season              122 kg[N uptake]/ha
   Dry Matter Productivity                  70.9 kg[DM]/kg[N uptake]
   Yield Productivity                       43.7 kg[yield]/kg[N uptake]

--------------------------------------------------------------------------------------------------------------

                     Maize YIELD :     5333 kg/ha    [Dry weight] 

**************************************************************************************************************

*DSSAT Cropping System Model Ver. 4.6.1.000 -release      OCT 24, 2017; 10:58:52
                                                                                
*RUN   8        : P08/18                    MZCER046 ANES1986    8              
 MODEL          : MZCER046 - Maize                                              
 EXPERIMENT     : ANES1986 MZ  Analisis a침os de bajo rendimiento Espinal       
 DATA PATH      : C:\DSSAT46\maize\                                             
 TREATMENT  8   : P08/18                    MZCER046                            
                                                                                
                                                                                
 CROP           : Maize            CULTIVAR : FNC3056          ECOTYPE :IB0001  
 STARTING DATE  : JUL 19 1986                                                   
 PLANTING DATE  : AUG 18 1986        PLANTS/m2 :  6.2     ROW SPACING :  80.cm  
 WEATHER        : CNAT   1986                                                   
 SOIL           : CCESPI2017     TEXTURE : SL    -   Suelo Espinal Calibraci    
 SOIL INITIAL C : DEPTH:100cm EXTR. H2O: 83.6mm  NO3:  0.0kg/ha  NH4:  0.0kg/ha 
 WATER BALANCE  : RAINFED                                                       
 IRRIGATION     : NOT IRRIGATED                                                 
 NITROGEN BAL.  : SOIL-N & N-UPTAKE SIMULATION; NO N-FIXATION                   
 N-FERTILIZER   :      162 kg/ha IN     6 APPLICATIONS                          
 RESIDUE/MANURE : INITIAL :     0 kg/ha ;       0 kg/ha IN     0 APPLICATIONS   
 ENVIRONM. OPT. : DAYL=    0.00  SRAD=    0.00  TMAX=    0.00  TMIN=    0.00    
                  RAIN=    0.00  CO2 =    0.00  DEW =    0.00  WIND=    0.00    
 SIMULATION OPT : WATER   :Y  NITROGEN:Y  N-FIX:N  PHOSPH :N  PESTS  :N         
                  PHOTO   :C  ET      :R  INFIL:S  HYDROL :R  SOM    :G         
                  CO2 347ppm  NSWIT   :1  EVAP :S  SOIL   :2  STEMP  :D         
 MANAGEMENT OPT : PLANTING:R  IRRIG   :N  FERT :D  RESIDUE:R  HARVEST:M         
                  WEATHER :M  TILLAGE :N                                        
                                                                                
*SUMMARY OF SOIL AND GENETIC INPUT PARAMETERS                                   
                                                                                
   SOIL LOWER UPPER   SAT  EXTR  INIT   ROOT   BULK     pH    NO3    NH4    ORG 
  DEPTH LIMIT LIMIT    SW    SW    SW   DIST   DENS                          C  
   cm   cm3/cm3    cm3/cm3    cm3/cm3         g/cm3         ugN/g  ugN/g     %  
------------------------------------------------------------------------------- 
  0-  5 0.160 0.252 0.376 0.092 0.252   1.00   1.69   6.60   0.00   0.00   0.45 
  5- 15 0.160 0.252 0.376 0.092 0.252   1.00   1.69   6.60   0.00   0.00   0.45 
 15- 30 0.160 0.252 0.376 0.092 0.252   1.00   1.69   6.60   0.00   0.00   0.45 
 30- 53 0.120 0.200 0.440 0.080 0.200   0.27   1.40   7.10   0.00   0.00   0.17 
 53- 77 0.120 0.200 0.440 0.080 0.200   0.27   1.40   7.10   0.00   0.00   0.17 
 77-100 0.120 0.200 0.440 0.080 0.200   0.27   1.40   7.10   0.00   0.00   0.17 
                                                                                
TOT-100  13.2  21.6  42.1   8.4  21.6  <--cm   -  kg/ha-->    0.0    0.0  39475 
SOIL ALBEDO    : 0.09      EVAPORATION LIMIT : 6.00         MIN. FACTOR  : 1.00 
RUNOFF CURVE # :76.00      DRAINAGE RATE     : 0.60         FERT. FACTOR : 1.00 
                                                                                
 Maize      CULTIVAR :CI0003-FNC3056            ECOTYPE :IB0001                 
 P1     : 233.00  P2     : 0.5000  P5     : 976.00                              
 G2     : 956.00  G3     :  7.500  PHINT  : 45.600                              


*SIMULATED CROP AND SOIL STATUS AT MAIN DEVELOPMENT STAGES

 RUN NO.     8     P08/18                  

        CROP GROWTH     BIOMASS         LEAF   CROP N     STRESS      STRESS                                           
   DATE  AGE STAGE        kg/ha    LAI   NUM  kg/ha  %   H2O  Nitr Phos1 Phos2  RSTG                                   
 ------  --- ----------   -----  -----  ----  ---  ---  ----  ----  ----  ----  ----                                   
 19 JUL    0 Start Sim        0   0.00   0.0    0  0.0  0.00  0.00  0.00  0.00     7
 18 AUG    0 Sowing           0   0.00   0.0    0  0.0  0.00  0.00  0.00  0.00     8
 19 AUG    1 Germinate        0   0.00   0.0    0  0.0  0.00  0.00  0.00  0.00     9
 23 AUG    5 Emergence       25   0.00   2.2    1  4.4  0.00  0.01  0.00  0.00     1
  3 SEP   16 End Juveni     150   0.31   8.0    5  3.3  0.02  0.00  0.00  0.00     2
  8 SEP   21 Floral Ini     347   0.59  10.4   14  3.9  0.27  0.00  0.00  0.00     3
  9 OCT   52 75% Silkin    2971   1.25  21.5   60  2.0  0.39  0.00  0.00  0.00     4
 19 OCT   62 Beg Gr Fil    4699   1.25  21.5   61  1.3  0.00  0.00  0.00  0.00     5
 28 NOV  102 End Gr Fil   10590   0.68  21.5  134  1.3  0.04  0.00  0.00  0.00     6
  1 DEC  105 Maturity     10590   0.68  21.5  134  1.3  0.05  0.00  0.00  0.00    10
  1 DEC  105 Harvest      10590   0.68  21.5  134  1.3  0.00  0.00  0.00  0.00    10


*MAIN GROWTH AND DEVELOPMENT VARIABLES

@     VARIABLE                                         SIMULATED     MEASURED
      --------                                         ---------     --------
      Anthesis day (dap)                                      52          -99
      Physiological maturity day (dap)                       105          -99
      Yield at harvest maturity (kg [dm]/ha)                6120          -99
      Number at maturity (no/m2)                            2170          -99
[...]
 WATER BALANCE  : RAINFED                                                       
 IRRIGATION     : NOT IRRIGATED                                                 
 NITROGEN BAL.  : SOIL-N & N-UPTAKE SIMULATION; NO N-FIXATION                   
 N-FERTILIZER   :      162 kg/ha IN     6 APPLICATIONS                          
 RESIDUE/MANURE : INITIAL :     0 kg/ha ;       0 kg/ha IN     0 APPLICATIONS   
 ENVIRONM. OPT. : DAYL=    0.00  SRAD=    0.00  TMAX=    0.00  TMIN=    0.00    
                  RAIN=    0.00  CO2 =    0.00  DEW =    0.00  WIND=    0.00    
 SIMULATION OPT : WATER   :Y  NITROGEN:Y  N-FIX:N  PHOSPH :N  PESTS  :N         
                  PHOTO   :C  ET      :R  INFIL:S  HYDROL :R  SOM    :G         
                  CO2 348ppm  NSWIT   :1  EVAP :S  SOIL   :2  STEMP  :D         
 MANAGEMENT OPT : PLANTING:R  IRRIG   :N  FERT :D  RESIDUE:R  HARVEST:M         
                  WEATHER :M  TILLAGE :N                                        
                                                                                
*SUMMARY OF SOIL AND GENETIC INPUT PARAMETERS                                   
                                                                                
   SOIL LOWER UPPER   SAT  EXTR  INIT   ROOT   BULK     pH    NO3    NH4    ORG 
  DEPTH LIMIT LIMIT    SW    SW    SW   DIST   DENS                          C  
   cm   cm3/cm3    cm3/cm3    cm3/cm3         g/cm3         ugN/g  ugN/g     %  
------------------------------------------------------------------------------- 
  0-  5 0.160 0.252 0.376 0.092 0.252   1.00   1.69   6.60   0.00   0.00   0.45 
  5- 15 0.160 0.252 0.376 0.092 0.252   1.00   1.69   6.60   0.00   0.00   0.45 
 15- 30 0.160 0.252 0.376 0.092 0.252   1.00   1.69   6.60   0.00   0.00   0.45 
 30- 53 0.120 0.200 0.440 0.080 0.200   0.27   1.40   7.10   0.00   0.00   0.17 
 53- 77 0.120 0.200 0.440 0.080 0.200   0.27   1.40   7.10   0.00   0.00   0.17 
 77-100 0.120 0.200 0.440 0.080 0.200   0.27   1.40   7.10   0.00   0.00   0.17 
                                                                                
TOT-100  13.2  21.6  42.1   8.4  21.6  <--cm   -  kg/ha-->    0.0    0.0  39475 
SOIL ALBEDO    : 0.09      EVAPORATION LIMIT : 6.00         MIN. FACTOR  : 1.00 
RUNOFF CURVE # :76.00      DRAINAGE RATE     : 0.60         FERT. FACTOR : 1.00 
                                                                                
 Maize      CULTIVAR :CI0003-FNC3056            ECOTYPE :IB0001                 
 P1     : 233.00  P2     : 0.5000  P5     : 976.00                              
 G2     : 956.00  G3     :  7.500  PHINT  : 45.600                              


*SIMULATED CROP AND SOIL STATUS AT MAIN DEVELOPMENT STAGES

 RUN NO.    31     P11/26                  

        CROP GROWTH     BIOMASS         LEAF   CROP N     STRESS      STRESS                                           
   DATE  AGE STAGE        kg/ha    LAI   NUM  kg/ha  %   H2O  Nitr Phos1 Phos2  RSTG                                   
 ------  --- ----------   -----  -----  ----  ---  ---  ----  ----  ----  ----  ----                                   
 26 NOV    0 Start Sim        0   0.00   0.0    0  0.0  0.00  0.00  0.00  0.00     7
 26 DEC    0 Sowing           0   0.00   0.0    0  0.0  0.00  0.00  0.00  0.00     8
 27 DEC    1 Germinate        0   0.00   0.0    0  0.0  0.00  0.00  0.00  0.00     9
 31 DEC    5 Emergence       25   0.00   2.2    1  4.4  0.00  0.01  0.00  0.00     1
 12 JAN   17 End Juveni     162   0.33   8.1    4  2.7  0.00  0.01  0.00  0.00     2
 16 JAN   21 Floral Ini     288   0.50  10.0    5  1.8  0.01  0.41  0.00  0.00     3
 14 FEB   50 75% Silkin    1489   0.57  20.8   31  2.1  0.51  0.72  0.00  0.00     4
 22 FEB   58 Beg Gr Fil    2318   0.57  20.8   32  1.4  0.00  0.00  0.00  0.00     5
 30 MAR   94 End Gr Fil    5075   0.54  20.8   65  1.3  0.12  0.00  0.00  0.00     6
  2 APR   97 Maturity      5075   0.54  20.8   65  1.3  0.71  0.00  0.00  0.00    10
  2 APR   97 Harvest       5075   0.54  20.8   65  1.3  0.00  0.00  0.00  0.00    10


*MAIN GROWTH AND DEVELOPMENT VARIABLES

@     VARIABLE                                         SIMULATED     MEASURED
      --------                                         ---------     --------
      Anthesis day (dap)                                      50          -99
      Physiological maturity day (dap)                        97          -99
      Yield at harvest maturity (kg [dm]/ha)                2823          -99
      Number at maturity (no/m2)                            1457          -99
      Unit wt at maturity (g [dm]/unit)                   0.1938          -99
      Number at maturity (no/unit)                         235.0          -99
      Tops weight at maturity (kg [dm]/ha)                  5075          -99
      By-product produced (stalk) at maturity (kg[dm]/ha    2275          -99
      Leaf area index, maximum                              0.72          -99
      Harvest index at maturity                            0.556          -99
      Grain N at maturity (kg/ha)                             50          -99
      Tops N at maturity (kg/ha)                              65          -99
      Stem N at maturity (kg/ha)                              15          -99
      Grain N at maturity (%)                                1.8          -99
      Tops weight at anthesis (kg [dm]/ha)                  1446          -99
      Tops N at anthesis (kg/ha)                              31          -99
      Leaf number per stem at maturity                     20.82          -99
      Emergence day (dap)                                      5          -99


*ENVIRONMENTAL AND STRESS FACTORS

 |-----Development Phase------|--------------------------------------Environment--------------------------------------|-----------------Stress-----------------|
                              |---------------Average--------------|-----Cumulative-----|--------Count of days--------|          (0=Min, 1=Max Stress)         |
                         Time  Temp  Temp  Temp Solar Photop                Evapo    Pot TMIN TMIN TMAX TMAX TMAX RAIN|----Water----|---Nitrogen--|-Phosphorus-|
                         Span   Max   Min  Mean   Rad  [day]    CO2   Rain  Trans     ET   <    <    >    >    >    >   Photo         Photo         Photo
                         days    邂    邂    邂 MJ/m2     hr    ppm     mm     mm     mm  0邂  2邂 30邂 32邂 34邂  0mm  synth Growth  synth Growth  synth Growth
----------------------------------------------------------------------------------------------------------------------------------------------------------------
 Emergence-End Juvenile    12  32.2  23.1  27.7  18.9   0.00  347.8   36.2   28.1   65.7    0    0   11    7    0    3  0.000  0.004  0.002  0.005  0.000  0.000
 End Juvenil-Floral Init    4  34.7  22.6  28.6  22.1   0.00  347.9    0.0    7.1   25.4    0    0    4    4    3    0  0.000  0.000  0.114  0.285  0.000  0.000
 Floral Init-End Lf Grow   29  34.8  23.6  29.2  18.9   0.00  348.0   82.5   44.8  158.7    0    0   28   26   18    6  0.376  0.509  0.506  0.744  0.000  0.000
 End Lf Grth-Beg Grn Fil    8  33.5  23.6  28.6  20.1   0.00  348.1    4.0   25.6   45.9    0    0    7    7    4    2  0.000  0.000  0.000  0.000  0.000  0.000
 Grain Filling Phase       36  34.2  23.8  29.0  20.3   7.49  348.2   91.8  111.8  213.1    0    0   32   30   21    9  0.036  0.107  0.000  0.000  0.000  0.000


 Planting to Harvest       97  34.0  23.5  28.8  19.7   3.25  348.0  219.8  230.7  553.6    0    0   89   80   47   21  0.140  0.212  0.156  0.235  0.000  0.000
----------------------------------------------------------------------------------------------------------------------------------------------------------------


*Resource Productivity
 Growing season length:  97 days 

 Precipitation during growing season       219.8 mm[rain]
   Dry Matter Productivity                  2.31 kg[DM]/m3[rain]          =   23.1 kg[DM]/ha per mm[rain]
   Yield Productivity                       1.28 kg[grain yield]/m3[rain] =   12.8 kg[yield]/ha per mm[rain]

 Evapotranspiration during growing season  230.7 mm[ET]
   Dry Matter Productivity                  2.20 kg[DM]/m3[ET]            =   22.0 kg[DM]/ha per mm[ET]
   Yield Productivity                       1.22 kg[grain yield]/m3[ET]   =   12.2 kg[yield]/ha per mm[ET]

 Transpiration during growing season       124.3 mm[EP]
   Dry Matter Productivity                  4.08 kg[DM]/m3[EP]            =   40.8 kg[DM]/ha per mm[EP]
   Yield Productivity                       2.27 kg[grain yield]/m3[EP]   =   22.7 kg[yield]/ha per mm[EP]

 N applied during growing season            162. kg[N applied]/ha
   Dry Matter Productivity                  31.3 kg[DM]/kg[N applied]
   Yield Productivity                       17.4 kg[yield]/kg[N applied]

 N uptake during growing season               73 kg[N uptake]/ha
   Dry Matter Productivity                  69.5 kg[DM]/kg[N uptake]
   Yield Productivity                       38.7 kg[yield]/kg[N uptake]

--------------------------------------------------------------------------------------------------------------

                     Maize YIELD :     2823 kg/ha    [Dry weight] 

**************************************************************************************************************

*DSSAT Cropping System Model Ver. 4.6.1.000 -release      OCT 24, 2017; 10:59:03
                                                                                
*RUN  32        : P12/31                    MZCER046 ANES1986   32              
 MODEL          : MZCER046 - Maize                                              
 EXPERIMENT     : ANES1986 MZ  Analisis a침os de bajo rendimiento Espinal       
 DATA PATH      : C:\DSSAT46\maize\                                             
 TREATMENT 32   : P12/31                    MZCER046                            
                                                                                
                                                                                
 CROP           : Maize            CULTIVAR : FNC3056          ECOTYPE :IB0001  
 STARTING DATE  : DEC  1 1986                                                   
 PLANTING DATE  : DEC 31 1986        PLANTS/m2 :  6.2     ROW SPACING :  80.cm  
 WEATHER        : CNAT   1986                                                   
 SOIL           : CCESPI2017     TEXTURE : SL    -   Suelo Espinal Calibraci    
 SOIL INITIAL C : DEPTH:100cm EXTR. H2O: 83.6mm  NO3:  0.0kg/ha  NH4:  0.0kg/ha 
 WATER BALANCE  : RAINFED                                                       
 IRRIGATION     : NOT IRRIGATED                                                 
 NITROGEN BAL.  : SOIL-N & N-UPTAKE SIMULATION; NO N-FIXATION                   
 N-FERTILIZER   :      162 kg/ha IN     6 APPLICATIONS                          
 RESIDUE/MANURE : INITIAL :     0 kg/ha ;       0 kg/ha IN     0 APPLICATIONS   
 ENVIRONM. OPT. : DAYL=    0.00  SRAD=    0.00  TMAX=    0.00  TMIN=    0.00    
                  RAIN=    0.00  CO2 =    0.00  DEW =    0.00  WIND=    0.00    
 SIMULATION OPT : WATER   :Y  NITROGEN:Y  N-FIX:N  PHOSPH :N  PESTS  :N         
                  PHOTO   :C  ET      :R  INFIL:S  HYDROL :R  SOM    :G         
                  CO2 348ppm  NSWIT   :1  EVAP :S  SOIL   :2  STEMP  :D         
 MANAGEMENT OPT : PLANTING:R  IRRIG   :N  FERT :D  RESIDUE:R  HARVEST:M         
                  WEATHER :M  TILLAGE :N                                        
                                                                                
*SUMMARY OF SOIL AND GENETIC INPUT PARAMETERS                                   
                                                                                
   SOIL LOWER UPPER   SAT  EXTR  INIT   ROOT   BULK     pH    NO3    NH4    ORG 
  DEPTH LIMIT LIMIT    SW    SW    SW   DIST   DENS                          C  
   cm   cm3/cm3    cm3/cm3    cm3/cm3         g/cm3         ugN/g  ugN/g     %  
------------------------------------------------------------------------------- 
  0-  5 0.160 0.252 0.376 0.092 0.252   1.00   1.69   6.60   0.00   0.00   0.45 
  5- 15 0.160 0.252 0.376 0.092 0.252   1.00   1.69   6.60   0.00   0.00   0.45 
 15- 30 0.160 0.252 0.376 0.092 0.252   1.00   1.69   6.60   0.00   0.00   0.45 
 30- 53 0.120 0.200 0.440 0.080 0.200   0.27   1.40   7.10   0.00   0.00   0.17 
 53- 77 0.120 0.200 0.440 0.080 0.200   0.27   1.40   7.10   0.00   0.00   0.17 
 77-100 0.120 0.200 0.440 0.080 0.200   0.27   1.40   7.10   0.00   0.00   0.17 
                                                                                
TOT-100  13.2  21.6  42.1   8.4  21.6  <--cm   -  kg/ha-->    0.0    0.0  39475 
SOIL ALBEDO    : 0.09      EVAPORATION LIMIT : 6.00         MIN. FACTOR  : 1.00 
RUNOFF CURVE # :76.00      DRAINAGE RATE     : 0.60         FERT. FACTOR : 1.00 
                                                                                
 Maize      CULTIVAR :CI0003-FNC3056            ECOTYPE :IB0001                 
 P1     : 233.00  P2     : 0.5000  P5     : 976.00                              
 G2     : 956.00  G3     :  7.500  PHINT  : 45.600                              


*SIMULATED CROP AND SOIL STATUS AT MAIN DEVELOPMENT STAGES

 RUN NO.    32     P12/31                  

        CROP GROWTH     BIOMASS         LEAF   CROP N     STRESS      STRESS                                           
   DATE  AGE STAGE        kg/ha    LAI   NUM  kg/ha  %   H2O  Nitr Phos1 Phos2  RSTG                                   
 ------  --- ----------   -----  -----  ----  ---  ---  ----  ----  ----  ----  ----                                   
  1 DEC    0 Start Sim        0   0.00   0.0    0  0.0  0.00  0.00  0.00  0.00     7
 31 DEC    0 Sowing           0   0.00   0.0    0  0.0  0.00  0.00  0.00  0.00     8
  1 JAN    1 Germinate        0   0.00   0.0    0  0.0  0.00  0.00  0.00  0.00     9
  5 JAN    5 Emergence       25   0.00   2.2    1  4.4  0.00  0.01  0.00  0.00     1
 16 JAN   16 End Juveni     146   0.30   7.8    4  2.8  0.00  0.00  0.00  0.00     2
 20 JAN   20 Floral Ini     269   0.48   9.7    5  1.8  0.00  0.36  0.00  0.00     3
 17 FEB   48 75% Silkin    1790   0.72  19.9   38  2.1  0.41  0.63  0.00  0.00     4
 25 FEB   56 Beg Gr Fil    2871   0.72  19.9   38  1.3  0.00  0.00  0.00  0.00     5
  3 APR   93 End Gr Fil    6074   0.53  19.9   78  1.3  0.25  0.00  0.00  0.00     6
  5 APR   95 Maturity      6074   0.53  19.9   78  1.3  0.00  0.00  0.00  0.00    10
  5 APR   95 Harvest       6074   0.53  19.9   78  1.3  0.00  0.00  0.00  0.00    10


*MAIN GROWTH AND DEVELOPMENT VARIABLES

@     VARIABLE                                         SIMULATED     MEASURED
      --------                                         ---------     --------
      Anthesis day (dap)                                      48          -99
      Physiological maturity day (dap)                        95          -99
      Yield at harvest maturity (kg [dm]/ha)                3399          -99
      Number at maturity (no/m2)                            1809          -99
      Unit wt at maturity (g [dm]/unit)                   0.1879          -99
      Number at maturity (no/unit)                         291.8          -99
      Tops weight at maturity (kg [dm]/ha)                  6074          -99
      By-product produced (stalk) at maturity (kg[dm]/ha    2697          -99
      Leaf area index, maximum                              0.72          -99
      Harvest index at maturity                            0.560          -99
      Grain N at maturity (kg/ha)                             61          -99
      Tops N at maturity (kg/ha)                              78          -99
      Stem N at maturity (kg/ha)                              17          -99
      Grain N at maturity (%)                                1.8          -99
      Tops weight at anthesis (kg [dm]/ha)                  1672          -99
      Tops N at anthesis (kg/ha)                              36          -99
      Leaf number per stem at maturity                     19.95          -99
      Emergence day (dap)                                      5          -99


*ENVIRONMENTAL AND STRESS FACTORS

 |-----Development Phase------|--------------------------------------Environment--------------------------------------|-----------------Stress-----------------|
                              |---------------Average--------------|-----Cumulative-----|--------Count of days--------|          (0=Min, 1=Max Stress)         |
                         Time  Temp  Temp  Temp Solar Photop                Evapo    Pot TMIN TMIN TMAX TMAX TMAX RAIN|----Water----|---Nitrogen--|-Phosphorus-|
                         Span   Max   Min  Mean   Rad  [day]    CO2   Rain  Trans     ET   <    <    >    >    >    >   Photo         Photo         Photo
                         days    邂    邂    邂 MJ/m2     hr    ppm     mm     mm     mm  0邂  2邂 30邂 32邂 34邂  0mm  synth Growth  synth Growth  synth Growth
----------------------------------------------------------------------------------------------------------------------------------------------------------------
 Emergence-End Juvenile    11  33.1  23.0  28.0  19.9   0.00  347.8    0.0    9.1   63.7    0    0   11    8    3    0  0.000  0.000  0.002  0.006  0.000  0.000
 End Juvenil-Floral Init    4  35.5  22.5  29.0  20.3   0.00  348.0    0.0    6.0   24.2    0    0    4    4    4    0  0.000  0.000  0.091  0.229  0.000  0.000
 Floral Init-End Lf Grow   28  34.4  23.7  29.0  18.6   0.00  348.0   83.5   53.1  150.2    0    0   26   24   15    7  0.284  0.415  0.436  0.649  0.000  0.000
 End Lf Grth-Beg Grn Fil    8  35.0  24.1  29.6  22.0   0.00  348.1    3.3   26.3   51.0    0    0    8    8    6    2  0.000  0.000  0.000  0.000  0.000  0.000
 Grain Filling Phase       37  34.0  23.9  28.9  19.8   8.94  348.2  131.1  107.3  210.9    0    0   33   30   19    9  0.167  0.254  0.000  0.000  0.000  0.000


 Planting to Harvest       95  34.0  23.6  28.8  19.5   3.83  348.1  259.6  230.7  536.5    0    0   88   77   47   22  0.149  0.221  0.133  0.202  0.000  0.000
----------------------------------------------------------------------------------------------------------------------------------------------------------------


*Resource Productivity
 Growing season length:  95 days 

 Precipitation during growing season       259.6 mm[rain]
   Dry Matter Productivity                  2.34 kg[DM]/m3[rain]          =   23.4 kg[DM]/ha per mm[rain]
   Yield Productivity                       1.31 kg[grain yield]/m3[rain] =   13.1 kg[yield]/ha per mm[rain]

 Evapotranspiration during growing season  230.7 mm[ET]
   Dry Matter Productivity                  2.63 kg[DM]/m3[ET]            =   26.3 kg[DM]/ha per mm[ET]
   Yield Productivity                       1.47 kg[grain yield]/m3[ET]   =   14.7 kg[yield]/ha per mm[ET]

 Transpiration during growing season       129.7 mm[EP]
   Dry Matter Productivity                  4.68 kg[DM]/m3[EP]            =   46.8 kg[DM]/ha per mm[EP]
   Yield Productivity                       2.62 kg[grain yield]/m3[EP]   =   26.2 kg[yield]/ha per mm[EP]

 N applied during growing season            162. kg[N applied]/ha
   Dry Matter Productivity                  37.5 kg[DM]/kg[N applied]
   Yield Productivity                       21.0 kg[yield]/kg[N applied]

 N uptake during growing season               83 kg[N uptake]/ha
   Dry Matter Productivity                  73.2 kg[DM]/kg[N uptake]
   Yield Productivity                       41.0 kg[yield]/kg[N uptake]

--------------------------------------------------------------------------------------------------------------

                     Maize YIELD :     3399 kg/ha    [Dry weight] 

**************************************************************************************************************
