*SIMULATION OVERVIEW FILE

*DSSAT Cropping System Model Ver. 4.6.1.000 -release      OCT 24, 2017; 10:50:18
                                                                                
*RUN   1        : P04/02                    MZCER046 ANBU2009    1              
 MODEL          : MZCER046 - Maize                                              
 EXPERIMENT     : ANBU2009 MZ  Analisis a침os de bajo rendimiento Buga          
 DATA PATH      : C:\DSSAT46\maize\                                             
 TREATMENT  1   : P04/02                    MZCER046                            
                                                                                
                                                                                
 CROP           : Maize            CULTIVAR : DK234            ECOTYPE :IB0001  
 STARTING DATE  : MAR  3 2009                                                   
 PLANTING DATE  : APR  2 2009        PLANTS/m2 :  6.2     ROW SPACING :  80.cm  
 WEATHER        : CUNI   2009                                                   
 SOIL           : CCBUGA2017     TEXTURE : CL    -   Suelo Buga MADR Fase I     
 SOIL INITIAL C : DEPTH: 90cm EXTR. H2O: 83.9mm  NO3:  0.0kg/ha  NH4:  0.0kg/ha 
 WATER BALANCE  : RAINFED                                                       
 IRRIGATION     : NOT IRRIGATED                                                 
 NITROGEN BAL.  : SOIL-N & N-UPTAKE SIMULATION; NO N-FIXATION                   
 N-FERTILIZER   :      161 kg/ha IN     5 APPLICATIONS                          
 RESIDUE/MANURE : INITIAL :     0 kg/ha ;       0 kg/ha IN     0 APPLICATIONS   
 ENVIRONM. OPT. : DAYL=    0.00  SRAD=    0.00  TMAX=    0.00  TMIN=    0.00    
                  RAIN=    0.00  CO2 =    0.00  DEW =    0.00  WIND=    0.00    
 SIMULATION OPT : WATER   :Y  NITROGEN:Y  N-FIX:N  PHOSPH :N  PESTS  :N         
                  PHOTO   :C  ET      :R  INFIL:S  HYDROL :R  SOM    :G         
                  CO2 387ppm  NSWIT   :1  EVAP :S  SOIL   :2  STEMP  :D         
 MANAGEMENT OPT : PLANTING:R  IRRIG   :N  FERT :D  RESIDUE:R  HARVEST:M         
                  WEATHER :M  TILLAGE :N                                        
                                                                                
*SUMMARY OF SOIL AND GENETIC INPUT PARAMETERS                                   
                                                                                
   SOIL LOWER UPPER   SAT  EXTR  INIT   ROOT   BULK     pH    NO3    NH4    ORG 
  DEPTH LIMIT LIMIT    SW    SW    SW   DIST   DENS                          C  
   cm   cm3/cm3    cm3/cm3    cm3/cm3         g/cm3         ugN/g  ugN/g     %  
------------------------------------------------------------------------------- 
  0-  5 0.215 0.331 0.341 0.116 0.331   1.00   1.68   6.70   0.00   0.00   0.75 
  5- 15 0.215 0.331 0.341 0.116 0.331   1.00   1.68   6.70   0.00   0.00   0.75 
 15- 25 0.215 0.331 0.341 0.116 0.331   1.00   1.68   6.70   0.00   0.00   0.75 
 25- 35 0.181 0.291 0.364 0.110 0.291   0.50   1.61   7.20   0.00   0.00   0.53 
 35- 45 0.181 0.291 0.364 0.110 0.291   0.50   1.61   7.20   0.00   0.00   0.53 
 45- 67 0.096 0.169 0.404 0.073 0.169   0.27   1.51   7.00   0.00   0.00   0.05 
 67- 90 0.096 0.169 0.404 0.073 0.169   0.27   1.51   7.00   0.00   0.00   0.05 
                                                                                
TOT- 90  13.3  21.7  34.0   8.4  21.7  <--cm   -  kg/ha-->    0.0    0.0  51964 
SOIL ALBEDO    : 0.09      EVAPORATION LIMIT : 6.00         MIN. FACTOR  : 1.00 
RUNOFF CURVE # :76.00      DRAINAGE RATE     : 0.60         FERT. FACTOR : 1.00 
                                                                                
 Maize      CULTIVAR :CI0002-DK234              ECOTYPE :IB0001                 
 P1     : 300.00  P2     : 0.4000  P5     :1075.00                              
 G2     : 890.00  G3     :  7.750  PHINT  : 40.000                              


*SIMULATED CROP AND SOIL STATUS AT MAIN DEVELOPMENT STAGES

 RUN NO.     1     P04/02                  

        CROP GROWTH     BIOMASS         LEAF   CROP N     STRESS      STRESS                                           
   DATE  AGE STAGE        kg/ha    LAI   NUM  kg/ha  %   H2O  Nitr Phos1 Phos2  RSTG                                   
 ------  --- ----------   -----  -----  ----  ---  ---  ----  ----  ----  ----  ----                                   
  3 MAR    0 Start Sim        0   0.00   0.0    0  0.0  0.00  0.00  0.00  0.00     7
  2 APR    0 Sowing           0   0.00   0.0    0  0.0  0.00  0.00  0.00  0.00     8
  3 APR    1 Germinate        0   0.00   0.0    0  0.0  0.00  0.00  0.00  0.00     9
  8 APR    6 Emergence       25   0.00   2.1    1  4.4  0.00  0.01  0.00  0.00     1
 24 APR   22 End Juveni     250   0.47  10.0    7  3.0  0.00  0.00  0.00  0.00     2
  1 MAY   29 Floral Ini     844   1.27  13.2   31  3.6  0.00  0.01  0.00  0.00     3
  9 JUN   68 75% Silkin    7549   3.49  27.3  153  2.0  0.22  0.06  0.00  0.00     4
 19 JUN   78 Beg Gr Fil    9642   3.49  27.3  153  1.6  0.00  0.00  0.00  0.00     5
 10 AUG  130 End Gr Fil   16457   1.14  27.3  179  1.1  0.46  0.20  0.00  0.00     6
 12 AUG  132 Maturity     16457   1.14  27.3  179  1.1  0.96  0.42  0.00  0.00    10
 12 AUG  132 Harvest      16457   1.14  27.3  179  1.1  0.00  0.00  0.00  0.00    10


*MAIN GROWTH AND DEVELOPMENT VARIABLES

@     VARIABLE                                         SIMULATED     MEASURED
      --------                                         ---------     --------
      Anthesis day (dap)                                      68          -99
      Physiological maturity day (dap)                       132          -99
      Yield at harvest maturity (kg [dm]/ha)                8621          -99
      Number at maturity (no/m2)                            2754          -99
      Unit wt at maturity (g [dm]/unit)                   0.3130          -99
      Number at maturity (no/unit)                         444.2          -99
      Tops weight at maturity (kg [dm]/ha)                 16457          -99
      By-product produced (stalk) at maturity (kg[dm]/ha    7913          -99
      Leaf area index, maximum                              3.49          -99
      Harvest index at maturity                            0.524          -99
      Grain N at maturity (kg/ha)                            135          -99
      Tops N at maturity (kg/ha)                             179          -99
      Stem N at maturity (kg/ha)                              44          -99
      Grain N at maturity (%)                                1.6          -99
      Tops weight at anthesis (kg [dm]/ha)                  7304          -99
      Tops N at anthesis (kg/ha)                             151          -99
      Leaf number per stem at maturity                     27.33          -99
      Emergence day (dap)                                      6          -99


*ENVIRONMENTAL AND STRESS FACTORS

 |-----Development Phase------|--------------------------------------Environment--------------------------------------|-----------------Stress-----------------|
                              |---------------Average--------------|-----Cumulative-----|--------Count of days--------|          (0=Min, 1=Max Stress)         |
                         Time  Temp  Temp  Temp Solar Photop                Evapo    Pot TMIN TMIN TMAX TMAX TMAX RAIN|----Water----|---Nitrogen--|-Phosphorus-|
                         Span   Max   Min  Mean   Rad  [day]    CO2   Rain  Trans     ET   <    <    >    >    >    >   Photo         Photo         Photo
                         days    邂    邂    邂 MJ/m2     hr    ppm     mm     mm     mm  0邂  2邂 30邂 32邂 34邂  0mm  synth Growth  synth Growth  synth Growth
----------------------------------------------------------------------------------------------------------------------------------------------------------------
 Emergence-End Juvenile    16  31.2  19.7  25.5  15.9  22.39  386.9   18.3   33.7   71.5    0    0   13    3    0    6  0.000  0.000  0.002  0.005  0.000  0.000
 End Juvenil-Floral Init    7  31.6  19.9  25.7  16.7  24.00  386.9   16.1   18.7   31.4    0    0    4    3    2    4  0.000  0.000  0.004  0.009  0.000  0.000
 Floral Init-End Lf Grow   39  31.5  18.9  25.2  16.7  24.00  387.0  150.5  134.1  158.2    0    0   30   11    1   17  0.157  0.224  0.025  0.062  0.000  0.000
 End Lf Grth-Beg Grn Fil   10  29.7  19.0  24.4  15.4  24.00  387.2   37.2   36.1   36.3    0    0    3    0    0    5  0.000  0.000  0.000  0.000  0.000  0.000
 Grain Filling Phase       52  30.9  18.2  24.6  16.7  24.00  387.4   79.6  124.6  209.8    0    0   30   15    4    9  0.406  0.444  0.075  0.187  0.000  0.000


 Planting to Harvest      132  31.1  18.8  25.0  16.7  23.48  387.1  310.7  364.3  552.1    0    0   86   35    7   42  0.220  0.256  0.040  0.099  0.000  0.000
----------------------------------------------------------------------------------------------------------------------------------------------------------------


*Resource Productivity
 Growing season length: 132 days 

 Precipitation during growing season       310.7 mm[rain]
   Dry Matter Productivity                  5.30 kg[DM]/m3[rain]          =   53.0 kg[DM]/ha per mm[rain]
   Yield Productivity                       2.77 kg[grain yield]/m3[rain] =   27.7 kg[yield]/ha per mm[rain]

 Evapotranspiration during growing season  364.3 mm[ET]
   Dry Matter Productivity                  4.52 kg[DM]/m3[ET]            =   45.2 kg[DM]/ha per mm[ET]
   Yield Productivity                       2.37 kg[grain yield]/m3[ET]   =   23.7 kg[yield]/ha per mm[ET]

 Transpiration during growing season       256.9 mm[EP]
   Dry Matter Productivity                  6.41 kg[DM]/m3[EP]            =   64.1 kg[DM]/ha per mm[EP]
   Yield Productivity                       3.36 kg[grain yield]/m3[EP]   =   33.6 kg[yield]/ha per mm[EP]

 N applied during growing season            161. kg[N applied]/ha
   Dry Matter Productivity                 102.2 kg[DM]/kg[N applied]
   Yield Productivity                       53.5 kg[yield]/kg[N applied]

 N uptake during growing season              199 kg[N uptake]/ha
   Dry Matter Productivity                  82.7 kg[DM]/kg[N uptake]
   Yield Productivity                       43.3 kg[yield]/kg[N uptake]

--------------------------------------------------------------------------------------------------------------

                     Maize YIELD :     8621 kg/ha    [Dry weight] 

**************************************************************************************************************

*DSSAT Cropping System Model Ver. 4.6.1.000 -release      OCT 24, 2017; 10:50:18
                                                                                
*RUN   2        : P04/07                    MZCER046 ANBU2009    2              
 MODEL          : MZCER046 - Maize                                              
 EXPERIMENT     : ANBU2009 MZ  Analisis a침os de bajo rendimiento Buga          
 DATA PATH      : C:\DSSAT46\maize\                                             
 TREATMENT  2   : P04/07                    MZCER046                            
                                                                                
                                                                                
 CROP           : Maize            CULTIVAR : DK234            ECOTYPE :IB0001  
 STARTING DATE  : MAR  8 2009                                                   
 PLANTING DATE  : APR  7 2009        PLANTS/m2 :  6.2     ROW SPACING :  80.cm  
 WEATHER        : CUNI   2009                                                   
 SOIL           : CCBUGA2017     TEXTURE : CL    -   Suelo Buga MADR Fase I     
 SOIL INITIAL C : DEPTH: 90cm EXTR. H2O: 83.9mm  NO3:  0.0kg/ha  NH4:  0.0kg/ha 
 WATER BALANCE  : RAINFED                                                       
 IRRIGATION     : NOT IRRIGATED                                                 
 NITROGEN BAL.  : SOIL-N & N-UPTAKE SIMULATION; NO N-FIXATION                   
 N-FERTILIZER   :      161 kg/ha IN     5 APPLICATIONS                          
 RESIDUE/MANURE : INITIAL :     0 kg/ha ;       0 kg/ha IN     0 APPLICATIONS   
 ENVIRONM. OPT. : DAYL=    0.00  SRAD=    0.00  TMAX=    0.00  TMIN=    0.00    
                  RAIN=    0.00  CO2 =    0.00  DEW =    0.00  WIND=    0.00    
 SIMULATION OPT : WATER   :Y  NITROGEN:Y  N-FIX:N  PHOSPH :N  PESTS  :N         
                  PHOTO   :C  ET      :R  INFIL:S  HYDROL :R  SOM    :G         
                  CO2 387ppm  NSWIT   :1  EVAP :S  SOIL   :2  STEMP  :D         
 MANAGEMENT OPT : PLANTING:R  IRRIG   :N  FERT :D  RESIDUE:R  HARVEST:M         
                  WEATHER :M  TILLAGE :N                                        
                                                                                
*SUMMARY OF SOIL AND GENETIC INPUT PARAMETERS                                   
                                                                                
   SOIL LOWER UPPER   SAT  EXTR  INIT   ROOT   BULK     pH    NO3    NH4    ORG 
  DEPTH LIMIT LIMIT    SW    SW    SW   DIST   DENS                          C  
   cm   cm3/cm3    cm3/cm3    cm3/cm3         g/cm3         ugN/g  ugN/g     %  
------------------------------------------------------------------------------- 
  0-  5 0.215 0.331 0.341 0.116 0.331   1.00   1.68   6.70   0.00   0.00   0.75 
  5- 15 0.215 0.331 0.341 0.116 0.331   1.00   1.68   6.70   0.00   0.00   0.75 
 15- 25 0.215 0.331 0.341 0.116 0.331   1.00   1.68   6.70   0.00   0.00   0.75 
 25- 35 0.181 0.291 0.364 0.110 0.291   0.50   1.61   7.20   0.00   0.00   0.53 
 35- 45 0.181 0.291 0.364 0.110 0.291   0.50   1.61   7.20   0.00   0.00   0.53 
 45- 67 0.096 0.169 0.404 0.073 0.169   0.27   1.51   7.00   0.00   0.00   0.05 
 67- 90 0.096 0.169 0.404 0.073 0.169   0.27   1.51   7.00   0.00   0.00   0.05 
                                                                                
TOT- 90  13.3  21.7  34.0   8.4  21.7  <--cm   -  kg/ha-->    0.0    0.0  51964 
SOIL ALBEDO    : 0.09      EVAPORATION LIMIT : 6.00         MIN. FACTOR  : 1.00 
RUNOFF CURVE # :76.00      DRAINAGE RATE     : 0.60         FERT. FACTOR : 1.00 
                                                                                
 Maize      CULTIVAR :CI0002-DK234              ECOTYPE :IB0001                 
 P1     : 300.00  P2     : 0.4000  P5     :1075.00                              
 G2     : 890.00  G3     :  7.750  PHINT  : 40.000                              


*SIMULATED CROP AND SOIL STATUS AT MAIN DEVELOPMENT STAGES

 RUN NO.     2     P04/07                  

        CROP GROWTH     BIOMASS         LEAF   CROP N     STRESS      STRESS                                           
   DATE  AGE STAGE        kg/ha    LAI   NUM  kg/ha  %   H2O  Nitr Phos1 Phos2  RSTG                                   
 ------  --- ----------   -----  -----  ----  ---  ---  ----  ----  ----  ----  ----                                   
  8 MAR    0 Start Sim        0   0.00   0.0    0  0.0  0.00  0.00  0.00  0.00     7
  7 APR    0 Sowing           0   0.00   0.0    0  0.0  0.00  0.00  0.00  0.00     8
  8 APR    1 Germinate        0   0.00   0.0    0  0.0  0.00  0.00  0.00  0.00     9
 13 APR    6 Emergence       25   0.00   2.2    1  4.4  0.00  0.01  0.00  0.00     1
 29 APR   22 End Juveni     322   0.59  10.2   10  3.2  0.01  0.00  0.00  0.00     2
  7 MAY   30 Floral Ini     892   1.33  13.6   32  3.6  0.00  0.00  0.00  0.00     3
 16 JUN   70 75% Silkin    7929   3.79  28.3  161  2.0  0.16  0.13  0.00  0.00     4
 27 JUN   81 Beg Gr Fil   10052   3.79  28.3  161  1.6  0.00  0.00  0.00  0.00     5
 16 AUG  131 End Gr Fil   15391   1.03  28.3  175  1.1  0.57  0.03  0.00  0.00     6
 19 AUG  134 Maturity     15391   1.03  28.3  175  1.1  0.30  0.00  0.00  0.00    10
 19 AUG  134 Harvest      15391   1.03  28.3  175  1.1  0.00  0.00  0.00  0.00    10


*MAIN GROWTH AND DEVELOPMENT VARIABLES

@     VARIABLE                                         SIMULATED     MEASURED
      --------                                         ---------     --------
      Anthesis day (dap)                                      70          -99
      Physiological maturity day (dap)                       134          -99
      Yield at harvest maturity (kg [dm]/ha)                6712          -99
      Number at maturity (no/m2)                            2661          -99
      Unit wt at maturity (g [dm]/unit)                   0.2523          -99
      Number at maturity (no/unit)                         429.1          -99
      Tops weight at maturity (kg [dm]/ha)                 15391          -99
      By-product produced (stalk) at maturity (kg[dm]/ha    8761          -99
      Leaf area index, maximum                              3.79          -99
      Harvest index at maturity                            0.436          -99
      Grain N at maturity (kg/ha)                            117          -99
      Tops N at maturity (kg/ha)                             175          -99
      Stem N at maturity (kg/ha)                              58          -99
      Grain N at maturity (%)                                1.7          -99
      Tops weight at anthesis (kg [dm]/ha)                  7656          -99
      Tops N at anthesis (kg/ha)                             158          -99
      Leaf number per stem at maturity                     28.26          -99
      Emergence day (dap)                                      6          -99


*ENVIRONMENTAL AND STRESS FACTORS

 |-----Development Phase------|--------------------------------------Environment--------------------------------------|-----------------Stress-----------------|
                              |---------------Average--------------|-----Cumulative-----|--------Count of days--------|          (0=Min, 1=Max Stress)         |
                         Time  Temp  Temp  Temp Solar Photop                Evapo    Pot TMIN TMIN TMAX TMAX TMAX RAIN|----Water----|---Nitrogen--|-Phosphorus-|
                         Span   Max   Min  Mean   Rad  [day]    CO2   Rain  Trans     ET   <    <    >    >    >    >   Photo         Photo         Photo
                         days    邂    邂    邂 MJ/m2     hr    ppm     mm     mm     mm  0邂  2邂 30邂 32邂 34邂  0mm  synth Growth  synth Growth  synth Growth
----------------------------------------------------------------------------------------------------------------------------------------------------------------
 Emergence-End Juvenile    16  32.2  19.6  25.9  17.0  23.80  386.9   22.6   27.0   76.9    0    0   13    6    2    4  0.000  0.009  0.002  0.005  0.000  0.000
 End Juvenil-Floral Init    8  29.9  19.5  24.7  15.3  24.00  386.9   36.6   27.5   31.9    0    0    4    1    0    6  0.000  0.000  0.001  0.001  0.000  0.000
 Floral Init-End Lf Grow   40  31.2  18.9  25.1  16.3  24.00  387.1  152.8  139.4  158.2    0    0   27   10    1   18  0.102  0.163  0.051  0.127  0.000  0.000
 End Lf Grth-Beg Grn Fil   11  29.1  18.3  23.7  14.5  24.00  387.3    5.8   36.9   37.1    0    0    4    0    0    2  0.000  0.000  0.000  0.000  0.000  0.000
 Grain Filling Phase       50  31.6  18.3  25.0  17.2  24.00  387.4   84.4  108.6  209.7    0    0   34   21    5    8  0.509  0.553  0.013  0.032  0.000  0.000


 Planting to Harvest      134  31.2  18.8  25.0  16.5  23.76  387.2  326.9  360.7  553.2    0    0   88   38    8   45  0.233  0.270  0.020  0.050  0.000  0.000
----------------------------------------------------------------------------------------------------------------------------------------------------------------


*Resource Productivity
 Growing season length: 134 days 

 Precipitation during growing season       326.9 mm[rain]
   Dry Matter Productivity                  4.71 kg[DM]/m3[rain]          =   47.1 kg[DM]/ha per mm[rain]
   Yield Productivity                       2.05 kg[grain yield]/m3[rain] =   20.5 kg[yield]/ha per mm[rain]

 Evapotranspiration during growing season  360.7 mm[ET]
   Dry Matter Productivity                  4.27 kg[DM]/m3[ET]            =   42.7 kg[DM]/ha per mm[ET]
   Yield Productivity                       1.86 kg[grain yield]/m3[ET]   =   18.6 kg[yield]/ha per mm[ET]

 Transpiration during growing season       255.7 mm[EP]
   Dry Matter Productivity                  6.02 kg[DM]/m3[EP]            =   60.2 kg[DM]/ha per mm[EP]
   Yield Productivity                       2.63 kg[grain yield]/m3[EP]   =   26.3 kg[yield]/ha per mm[EP]

 N applied during growing season            161. kg[N applied]/ha
   Dry Matter Productivity                  95.6 kg[DM]/kg[N applied]
   Yield Productivity                       41.7 kg[yield]/kg[N applied]

 N uptake during growing season              197 kg[N uptake]/ha
   Dry Matter Productivity                  78.1 kg[DM]/kg[N uptake]
   Yield Productivity                       34.1 kg[yield]/kg[N uptake]

--------------------------------------------------------------------------------------------------------------

                     Maize YIELD :     6712 kg/ha    [Dry weight] 

**************************************************************************************************************

*DSSAT Cropping System Model Ver. 4.6.1.000 -release      OCT 24, 2017; 10:50:19
                                                                                
*RUN   3        : P04/12                    MZCER046 ANBU2009    3              
 MODEL          : MZCER046 - Maize                                              
 EXPERIMENT     : ANBU2009 MZ  Analisis a침os de bajo rendimiento Buga          
 DATA PATH      : C:\DSSAT46\maize\                                             
 TREATMENT  3   : P04/12                    MZCER046                            
                                                                                
                                                                                
 CROP           : Maize            CULTIVAR : DK234            ECOTYPE :IB0001  
 STARTING DATE  : MAR 13 2009                                                   
 PLANTING DATE  : APR 12 2009        PLANTS/m2 :  6.2     ROW SPACING :  80.cm  
 WEATHER        : CUNI   2009                                                   
 SOIL           : CCBUGA2017     TEXTURE : CL    -   Suelo Buga MADR Fase I     
 SOIL INITIAL C : DEPTH: 90cm EXTR. H2O: 83.9mm  NO3:  0.0kg/ha  NH4:  0.0kg/ha 
 WATER BALANCE  : RAINFED                                                       
 IRRIGATION     : NOT IRRIGATED                                                 
 NITROGEN BAL.  : SOIL-N & N-UPTAKE SIMULATION; NO N-FIXATION                   
 N-FERTILIZER   :      161 kg/ha IN     5 APPLICATIONS                          
 RESIDUE/MANURE : INITIAL :     0 kg/ha ;       0 kg/ha IN     0 APPLICATIONS   
 ENVIRONM. OPT. : DAYL=    0.00  SRAD=    0.00  TMAX=    0.00  TMIN=    0.00    
                  RAIN=    0.00  CO2 =    0.00  DEW =    0.00  WIND=    0.00    
 SIMULATION OPT : WATER   :Y  NITROGEN:Y  N-FIX:N  PHOSPH :N  PESTS  :N         
                  PHOTO   :C  ET      :R  INFIL:S  HYDROL :R  SOM    :G         
                  CO2 387ppm  NSWIT   :1  EVAP :S  SOIL   :2  STEMP  :D         
 MANAGEMENT OPT : PLANTING:R  IRRIG   :N  FERT :D  RESIDUE:R  HARVEST:M         
                  WEATHER :M  TILLAGE :N                                        
                                                                                
*SUMMARY OF SOIL AND GENETIC INPUT PARAMETERS                                   
                                                                                
   SOIL LOWER UPPER   SAT  EXTR  INIT   ROOT   BULK     pH    NO3    NH4    ORG 
  DEPTH LIMIT LIMIT    SW    SW    SW   DIST   DENS                          C  
   cm   cm3/cm3    cm3/cm3    cm3/cm3         g/cm3         ugN/g  ugN/g     %  
------------------------------------------------------------------------------- 
  0-  5 0.215 0.331 0.341 0.116 0.331   1.00   1.68   6.70   0.00   0.00   0.75 
  5- 15 0.215 0.331 0.341 0.116 0.331   1.00   1.68   6.70   0.00   0.00   0.75 
 15- 25 0.215 0.331 0.341 0.116 0.331   1.00   1.68   6.70   0.00   0.00   0.75 
 25- 35 0.181 0.291 0.364 0.110 0.291   0.50   1.61   7.20   0.00   0.00   0.53 
 35- 45 0.181 0.291 0.364 0.110 0.291   0.50   1.61   7.20   0.00   0.00   0.53 
 45- 67 0.096 0.169 0.404 0.073 0.169   0.27   1.51   7.00   0.00   0.00   0.05 
 67- 90 0.096 0.169 0.404 0.073 0.169   0.27   1.51   7.00   0.00   0.00   0.05 
                                                                                
TOT- 90  13.3  21.7  34.0   8.4  21.7  <--cm   -  kg/ha-->    0.0    0.0  51964 
SOIL ALBEDO    : 0.09      EVAPORATION LIMIT : 6.00         MIN. FACTOR  : 1.00 
RUNOFF CURVE # :76.00      DRAINAGE RATE     : 0.60         FERT. FACTOR : 1.00 
                                                                                
 Maize      CULTIVAR :CI0002-DK234              ECOTYPE :IB0001                 
 P1     : 300.00  P2     : 0.4000  P5     :1075.00                              
 G2     : 890.00  G3     :  7.750  PHINT  : 40.000                              


*SIMULATED CROP AND SOIL STATUS AT MAIN DEVELOPMENT STAGES

 RUN NO.     3     P04/12                  

        CROP GROWTH     BIOMASS         LEAF   CROP N     STRESS      STRESS                                           
   DATE  AGE STAGE        kg/ha    LAI   NUM  kg/ha  %   H2O  Nitr Phos1 Phos2  RSTG                                   
 ------  --- ----------   -----  -----  ----  ---  ---  ----  ----  ----  ----  ----                                   
 13 MAR    0 Start Sim        0   0.00   0.0    0  0.0  0.00  0.00  0.00  0.00     7
 12 APR    0 Sowing           0   0.00   0.0    0  0.0  0.00  0.00  0.00  0.00     8
 13 APR    1 Germinate        0   0.00   0.0    0  0.0  0.00  0.00  0.00  0.00     9
 18 APR    6 Emergence       25   0.00   2.2    1  4.4  0.00  0.01  0.00  0.00     1
  4 MAY   22 End Juveni     202   0.40  10.1    7  3.6  0.00  0.00  0.00  0.00     2
 12 MAY   30 Floral Ini     859   1.28  13.5   31  3.6  0.00  0.04  0.00  0.00     3
 21 JUN   70 75% Silkin    8267   3.79  28.0  166  2.0  0.13  0.17  0.00  0.00     4
  2 JUL   81 Beg Gr Fil   10391   3.79  28.0  166  1.6  0.00  0.00  0.00  0.00     5
 21 AUG  131 End Gr Fil   14990   0.86  28.0  175  1.2  0.63  0.00  0.00  0.00     6
 24 AUG  134 Maturity     14990   0.86  28.0  175  1.2  0.08  0.00  0.00  0.00    10
 24 AUG  134 Harvest      14990   0.86  28.0  175  1.2  0.00  0.00  0.00  0.00    10


*MAIN GROWTH AND DEVELOPMENT VARIABLES

@     VARIABLE                                         SIMULATED     MEASURED
      --------                                         ---------     --------
      Anthesis day (dap)                                      70          -99
      Physiological maturity day (dap)                       134          -99
      Yield at harvest maturity (kg [dm]/ha)                5934          -99
      Number at maturity (no/m2)                            2661          -99
      Unit wt at maturity (g [dm]/unit)                   0.2230          -99
      Number at maturity (no/unit)                         429.2          -99
      Tops weight at maturity (kg [dm]/ha)                 14990          -99
      By-product produced (stalk) at maturity (kg[dm]/ha    9136          -99
      Leaf area index, maximum                              3.79          -99
      Harvest index at maturity                            0.396          -99
      Grain N at maturity (kg/ha)                            106          -99
      Tops N at maturity (kg/ha)                             175          -99
      Stem N at maturity (kg/ha)                              68          -99
      Grain N at maturity (%)                                1.8          -99
      Tops weight at anthesis (kg [dm]/ha)                  7971          -99
      Tops N at anthesis (kg/ha)                             162          -99
      Leaf number per stem at maturity                     28.02          -99
      Emergence day (dap)                                      6          -99


*ENVIRONMENTAL AND STRESS FACTORS

 |-----Development Phase------|--------------------------------------Environment--------------------------------------|-----------------Stress-----------------|
                              |---------------Average--------------|-----Cumulative-----|--------Count of days--------|          (0=Min, 1=Max Stress)         |
                         Time  Temp  Temp  Temp Solar Photop                Evapo    Pot TMIN TMIN TMAX TMAX TMAX RAIN|----Water----|---Nitrogen--|-Phosphorus-|
                         Span   Max   Min  Mean   Rad  [day]    CO2   Rain  Trans     ET   <    <    >    >    >    >   Photo         Photo         Photo
                         days    邂    邂    邂 MJ/m2     hr    ppm     mm     mm     mm  0邂  2邂 30邂 32邂 34邂  0mm  synth Growth  synth Growth  synth Growth
----------------------------------------------------------------------------------------------------------------------------------------------------------------
 Emergence-End Juvenile    16  31.4  19.9  25.6  15.2  24.00  386.9   50.2   29.7   68.3    0    0   10    5    2    7  0.000  0.000  0.002  0.004  0.000  0.000
 End Juvenil-Floral Init    8  30.9  18.6  24.7  17.6  24.00  386.9    3.6   28.1   36.9    0    0    6    0    0    3  0.000  0.000  0.015  0.037  0.000  0.000
 Floral Init-End Lf Grow   40  31.1  18.9  25.0  16.0  24.00  387.1  150.0  140.9  155.4    0    0   25   10    1   16  0.063  0.134  0.078  0.172  0.000  0.000
 End Lf Grth-Beg Grn Fil   11  28.5  18.0  23.2  14.5  24.00  387.3   60.1   36.5   36.7    0    0    2    0    0    4  0.000  0.000  0.000  0.000  0.000  0.000
 Grain Filling Phase       50  31.9  18.5  25.2  17.4  24.00  387.4   42.4   99.6  214.0    0    0   38   21    5    9  0.580  0.627  0.000  0.000  0.000  0.000


 Planting to Harvest      134  31.2  18.8  25.0  16.6  23.95  387.2  333.2  360.8  559.1    0    0   89   38    8   44  0.235  0.276  0.024  0.054  0.000  0.000
----------------------------------------------------------------------------------------------------------------------------------------------------------------


*Resource Productivity
 Growing season length: 134 days 

 Precipitation during growing season       333.2 mm[rain]
   Dry Matter Productivity                  4.50 kg[DM]/m3[rain]          =   45.0 kg[DM]/ha per mm[rain]
   Yield Productivity                       1.78 kg[grain yield]/m3[rain] =   17.8 kg[yield]/ha per mm[rain]

 Evapotranspiration during growing season  360.8 mm[ET]
   Dry Matter Productivity                  4.15 kg[DM]/m3[ET]            =   41.5 kg[DM]/ha per mm[ET]
   Yield Productivity                       1.64 kg[grain yield]/m3[ET]   =   16.4 kg[yield]/ha per mm[ET]

 Transpiration during growing season       246.3 mm[EP]
   Dry Matter Productivity                  6.09 kg[DM]/m3[EP]            =   60.9 kg[DM]/ha per mm[EP]
   Yield Productivity                       2.41 kg[grain yield]/m3[EP]   =   24.1 kg[yield]/ha per mm[EP]

 N applied during growing season            161. kg[N applied]/ha
   Dry Matter Productivity                  93.1 kg[DM]/kg[N applied]
   Yield Productivity                       36.9 kg[yield]/kg[N applied]

 N uptake during growing season              192 kg[N uptake]/ha
   Dry Matter Productivity                  78.1 kg[DM]/kg[N uptake]
   Yield Productivity                       30.9 kg[yield]/kg[N uptake]

--------------------------------------------------------------------------------------------------------------

                     Maize YIELD :     5934 kg/ha    [Dry weight] 

**************************************************************************************************************

*DSSAT Cropping System Model Ver. 4.6.1.000 -release      OCT 24, 2017; 10:50:19
                                                                                
*RUN   4        : P04/17                    MZCER046 ANBU2009    4              
 MODEL          : MZCER046 - Maize                                              
 EXPERIMENT     : ANBU2009 MZ  Analisis a침os de bajo rendimiento Buga          
 DATA PATH      : C:\DSSAT46\maize\                                             
 TREATMENT  4   : P04/17                    MZCER046                            
                                                                                
                                                                                
 CROP           : Maize            CULTIVAR : DK234            ECOTYPE :IB0001  
 STARTING DATE  : MAR 18 2009                                                   
 PLANTING DATE  : APR 17 2009        PLANTS/m2 :  6.2     ROW SPACING :  80.cm  
 WEATHER        : CUNI   2009                                                   
 SOIL           : CCBUGA2017     TEXTURE : CL    -   Suelo Buga MADR Fase I     
 SOIL INITIAL C : DEPTH: 90cm EXTR. H2O: 83.9mm  NO3:  0.0kg/ha  NH4:  0.0kg/ha 
 WATER BALANCE  : RAINFED                                                       
 IRRIGATION     : NOT IRRIGATED                                                 
 NITROGEN BAL.  : SOIL-N & N-UPTAKE SIMULATION; NO N-FIXATION                   
 N-FERTILIZER   :      161 kg/ha IN     5 APPLICATIONS                          
 RESIDUE/MANURE : INITIAL :     0 kg/ha ;       0 kg/ha IN     0 APPLICATIONS   
 ENVIRONM. OPT. : DAYL=    0.00  SRAD=    0.00  TMAX=    0.00  TMIN=    0.00    
                  RAIN=    0.00  CO2 =    0.00  DEW =    0.00  WIND=    0.00    
 SIMULATION OPT : WATER   :Y  NITROGEN:Y  N-FIX:N  PHOSPH :N  PESTS  :N         
                  PHOTO   :C  ET      :R  INFIL:S  HYDROL :R  SOM    :G         
                  CO2 387ppm  NSWIT   :1  EVAP :S  SOIL   :2  STEMP  :D         
 MANAGEMENT OPT : PLANTING:R  IRRIG   :N  FERT :D  RESIDUE:R  HARVEST:M         
                  WEATHER :M  TILLAGE :N                                        
                                                                                
*SUMMARY OF SOIL AND GENETIC INPUT PARAMETERS                                   
                                                                                
   SOIL LOWER UPPER   SAT  EXTR  INIT   ROOT   BULK     pH    NO3    NH4    ORG 
  DEPTH LIMIT LIMIT    SW    SW    SW   DIST   DENS                          C  
   cm   cm3/cm3    cm3/cm3    cm3/cm3         g/cm3         ugN/g  ugN/g     %  
------------------------------------------------------------------------------- 
  0-  5 0.215 0.331 0.341 0.116 0.331   1.00   1.68   6.70   0.00   0.00   0.75 
  5- 15 0.215 0.331 0.341 0.116 0.331   1.00   1.68   6.70   0.00   0.00   0.75 
 15- 25 0.215 0.331 0.341 0.116 0.331   1.00   1.68   6.70   0.00   0.00   0.75 
 25- 35 0.181 0.291 0.364 0.110 0.291   0.50   1.61   7.20   0.00   0.00   0.53 
 35- 45 0.181 0.291 0.364 0.110 0.291   0.50   1.61   7.20   0.00   0.00   0.53 
 45- 67 0.096 0.169 0.404 0.073 0.169   0.27   1.51   7.00   0.00   0.00   0.05 
 67- 90 0.096 0.169 0.404 0.073 0.169   0.27   1.51   7.00   0.00   0.00   0.05 
                                                                                
TOT- 90  13.3  21.7  34.0   8.4  21.7  <--cm   -  kg/ha-->    0.0    0.0  51964 
SOIL ALBEDO    : 0.09      EVAPORATION LIMIT : 6.00         MIN. FACTOR  : 1.00 
RUNOFF CURVE # :76.00      DRAINAGE RATE     : 0.60         FERT. FACTOR : 1.00 
                                                                                
 Maize      CULTIVAR :CI0002-DK234              ECOTYPE :IB0001                 
 P1     : 300.00  P2     : 0.4000  P5     :1075.00                              
 G2     : 890.00  G3     :  7.750  PHINT  : 40.000                              


*SIMULATED CROP AND SOIL STATUS AT MAIN DEVELOPMENT STAGES

 RUN NO.     4     P04/17                  

        CROP GROWTH     BIOMASS         LEAF   CROP N     STRESS      STRESS                                           
   DATE  AGE STAGE        kg/ha    LAI   NUM  kg/ha  %   H2O  Nitr Phos1 Phos2  RSTG                                   
 ------  --- ----------   -----  -----  ----  ---  ---  ----  ----  ----  ----  ----                                   
 18 MAR    0 Start Sim        0   0.00   0.0    0  0.0  0.00  0.00  0.00  0.00     7
 17 APR    0 Sowing           0   0.00   0.0    0  0.0  0.00  0.00  0.00  0.00     8
 18 APR    1 Germinate        0   0.00   0.0    0  0.0  0.00  0.00  0.00  0.00     9
 23 APR    6 Emergence       25   0.00   2.1    1  4.4  0.00  0.01  0.00  0.00     1
  9 MAY   22 End Juveni     231   0.44  10.0    8  3.3  0.00  0.00  0.00  0.00     2
 17 MAY   30 Floral Ini     935   1.37  13.4   24  2.6  0.00  0.01  0.00  0.00     3
 26 JUN   70 75% Silkin    8703   4.04  27.9  176  2.0  0.07  0.18  0.00  0.00     4
  7 JUL   81 Beg Gr Fil   11043   4.03  27.9  177  1.6  0.00  0.00  0.00  0.00     5
 25 AUG  130 End Gr Fil   16092   1.03  27.9  183  1.1  0.60  0.01  0.00  0.00     6
 28 AUG  133 Maturity     16092   1.03  27.9  183  1.1  0.39  0.08  0.00  0.00    10
 28 AUG  133 Harvest      16092   1.03  27.9  183  1.1  0.00  0.00  0.00  0.00    10


*MAIN GROWTH AND DEVELOPMENT VARIABLES

@     VARIABLE                                         SIMULATED     MEASURED
      --------                                         ---------     --------
      Anthesis day (dap)                                      70          -99
      Physiological maturity day (dap)                       133          -99
      Yield at harvest maturity (kg [dm]/ha)                6796          -99
      Number at maturity (no/m2)                            2822          -99
      Unit wt at maturity (g [dm]/unit)                   0.2408          -99
      Number at maturity (no/unit)                         455.1          -99
      Tops weight at maturity (kg [dm]/ha)                 16092          -99
      By-product produced (stalk) at maturity (kg[dm]/ha    9379          -99
      Leaf area index, maximum                              4.04          -99
      Harvest index at maturity                            0.422          -99
      Grain N at maturity (kg/ha)                            122          -99
      Tops N at maturity (kg/ha)                             183          -99
      Stem N at maturity (kg/ha)                              61          -99
      Grain N at maturity (%)                                1.8          -99
      Tops weight at anthesis (kg [dm]/ha)                  8433          -99
      Tops N at anthesis (kg/ha)                             176          -99
      Leaf number per stem at maturity                     27.86          -99
      Emergence day (dap)                                      6          -99


*ENVIRONMENTAL AND STRESS FACTORS

 |-----Development Phase------|--------------------------------------Environment--------------------------------------|-----------------Stress-----------------|
                              |---------------Average--------------|-----Cumulative-----|--------Count of days--------|          (0=Min, 1=Max Stress)         |
                         Time  Temp  Temp  Temp Solar Photop                Evapo    Pot TMIN TMIN TMAX TMAX TMAX RAIN|----Water----|---Nitrogen--|-Phosphorus-|
                         Span   Max   Min  Mean   Rad  [day]    CO2   Rain  Trans     ET   <    <    >    >    >    >   Photo         Photo         Photo
                         days    邂    邂    邂 MJ/m2     hr    ppm     mm     mm     mm  0邂  2邂 30邂 32邂 34邂  0mm  synth Growth  synth Growth  synth Growth
----------------------------------------------------------------------------------------------------------------------------------------------------------------
 Emergence-End Juvenile    16  31.1  19.6  25.3  16.7  24.00  386.9   51.0   39.6   74.8    0    0   10    4    2    8  0.000  0.000  0.002  0.005  0.000  0.000
 End Juvenil-Floral Init    8  31.5  17.9  24.7  17.5  24.00  387.0    5.3   21.6   36.6    0    0    6    1    0    4  0.000  0.000  0.000  0.001  0.000  0.000
 Floral Init-End Lf Grow   40  30.6  18.9  24.8  15.4  24.00  387.1  153.3  139.3  148.8    0    0   22    9    1   16  0.027  0.074  0.083  0.179  0.000  0.000
 End Lf Grth-Beg Grn Fil   11  28.9  18.2  23.5  15.3  24.00  387.3   56.8   38.6   38.8    0    0    1    0    0    4  0.000  0.000  0.000  0.000  0.000  0.000
 Grain Filling Phase       49  32.1  18.5  25.3  17.7  24.00  387.5   58.6  106.5  213.7    0    0   41   21    5   10  0.544  0.601  0.002  0.004  0.000  0.000


 Planting to Harvest      133  31.3  18.8  25.0  16.5  24.00  387.2  325.0  360.5  552.0    0    0   88   40    9   42  0.211  0.248  0.026  0.058  0.000  0.000
----------------------------------------------------------------------------------------------------------------------------------------------------------------


*Resource Productivity
 Growing season length: 133 days 

 Precipitation during growing season       325.0 mm[rain]
   Dry Matter Productivity                  4.95 kg[DM]/m3[rain]          =   49.5 kg[DM]/ha per mm[rain]
   Yield Productivity                       2.09 kg[grain yield]/m3[rain] =   20.9 kg[yield]/ha per mm[rain]

 Evapotranspiration during growing season  360.5 mm[ET]
   Dry Matter Productivity                  4.46 kg[DM]/m3[ET]            =   44.6 kg[DM]/ha per mm[ET]
   Yield Productivity                       1.89 kg[grain yield]/m3[ET]   =   18.9 kg[yield]/ha per mm[ET]

 Transpiration during growing season       252.5 mm[EP]
   Dry Matter Productivity                  6.37 kg[DM]/m3[EP]            =   63.7 kg[DM]/ha per mm[EP]
   Yield Productivity                       2.69 kg[grain yield]/m3[EP]   =   26.9 kg[yield]/ha per mm[EP]

 N applied during growing season            161. kg[N applied]/ha
   Dry Matter Productivity                 100.0 kg[DM]/kg[N applied]
   Yield Productivity                       42.2 kg[yield]/kg[N applied]

 N uptake during growing season              197 kg[N uptake]/ha
   Dry Matter Productivity                  81.7 kg[DM]/kg[N uptake]
   Yield Productivity                       34.5 kg[yield]/kg[N uptake]

--------------------------------------------------------------------------------------------------------------

                     Maize YIELD :     6796 kg/ha    [Dry weight] 

**************************************************************************************************************

*DSSAT Cropping System Model Ver. 4.6.1.000 -release      OCT 24, 2017; 10:50:19
                                                                                
*RUN   5        : P04/22                    MZCER046 ANBU2009    5              
 MODEL          : MZCER046 - Maize                                              
 EXPERIMENT     : ANBU2009 MZ  Analisis a침os de bajo rendimiento Buga          
 DATA PATH      : C:\DSSAT46\maize\                                             
 TREATMENT  5   : P04/22                    MZCER046                            
                                                                                
                                                                                
 CROP           : Maize            CULTIVAR : DK234            ECOTYPE :IB0001  
 STARTING DATE  : MAR 23 2009                                                   
 PLANTING DATE  : APR 22 2009        PLANTS/m2 :  6.2     ROW SPACING :  80.cm  
 WEATHER        : CUNI   2009                                                   
 SOIL           : CCBUGA2017     TEXTURE : CL    -   Suelo Buga MADR Fase I     
 SOIL INITIAL C : DEPTH: 90cm EXTR. H2O: 83.9mm  NO3:  0.0kg/ha  NH4:  0.0kg/ha 
 WATER BALANCE  : RAINFED                                                       
 IRRIGATION     : NOT IRRIGATED                                                 
 NITROGEN BAL.  : SOIL-N & N-UPTAKE SIMULATION; NO N-FIXATION                   
 N-FERTILIZER   :      161 kg/ha IN     5 APPLICATIONS                          
 RESIDUE/MANURE : INITIAL :     0 kg/ha ;       0 kg/ha IN     0 APPLICATIONS   
 ENVIRONM. OPT. : DAYL=    0.00  SRAD=    0.00  TMAX=    0.00  TMIN=    0.00    
                  RAIN=    0.00  CO2 =    0.00  DEW =    0.00  WIND=    0.00    
 SIMULATION OPT : WATER   :Y  NITROGEN:Y  N-FIX:N  PHOSPH :N  PESTS  :N         
                  PHOTO   :C  ET      :R  INFIL:S  HYDROL :R  SOM    :G         
                  CO2 387ppm  NSWIT   :1  EVAP :S  SOIL   :2  STEMP  :D         
 MANAGEMENT OPT : PLANTING:R  IRRIG   :N  FERT :D  RESIDUE:R  HARVEST:M         
                  WEATHER :M  TILLAGE :N                                        
                                                                                
*SUMMARY OF SOIL AND GENETIC INPUT PARAMETERS                                   
                                                                                
   SOIL LOWER UPPER   SAT  EXTR  INIT   ROOT   BULK     pH    NO3    NH4    ORG 
  DEPTH LIMIT LIMIT    SW    SW    SW   DIST   DENS                          C  
   cm   cm3/cm3    cm3/cm3    cm3/cm3         g/cm3         ugN/g  ugN/g     %  
------------------------------------------------------------------------------- 
  0-  5 0.215 0.331 0.341 0.116 0.331   1.00   1.68   6.70   0.00   0.00   0.75 
  5- 15 0.215 0.331 0.341 0.116 0.331   1.00   1.68   6.70   0.00   0.00   0.75 
 15- 25 0.215 0.331 0.341 0.116 0.331   1.00   1.68   6.70   0.00   0.00   0.75 
 25- 35 0.181 0.291 0.364 0.110 0.291   0.50   1.61   7.20   0.00   0.00   0.53 
 35- 45 0.181 0.291 0.364 0.110 0.291   0.50   1.61   7.20   0.00   0.00   0.53 
 45- 67 0.096 0.169 0.404 0.073 0.169   0.27   1.51   7.00   0.00   0.00   0.05 
 67- 90 0.096 0.169 0.404 0.073 0.169   0.27   1.51   7.00   0.00   0.00   0.05 
                                                                                
TOT- 90  13.3  21.7  34.0   8.4  21.7  <--cm   -  kg/ha-->    0.0    0.0  51964 
SOIL ALBEDO    : 0.09      EVAPORATION LIMIT : 6.00         MIN. FACTOR  : 1.00 
RUNOFF CURVE # :76.00      DRAINAGE RATE     : 0.60         FERT. FACTOR : 1.00 
                                                                                
 Maize      CULTIVAR :CI0002-DK234              ECOTYPE :IB0001                 
 P1     : 300.00  P2     : 0.4000  P5     :1075.00                              
 G2     : 890.00  G3     :  7.750  PHINT  : 40.000                              


*SIMULATED CROP AND SOIL STATUS AT MAIN DEVELOPMENT STAGES

 RUN NO.     5     P04/22                  

        CROP GROWTH     BIOMASS         LEAF   CROP N     STRESS      STRESS                                           
   DATE  AGE STAGE        kg/ha    LAI   NUM  kg/ha  %   H2O  Nitr Phos1 Phos2  RSTG                                   
 ------  --- ----------   -----  -----  ----  ---  ---  ----  ----  ----  ----  ----                                   
 23 MAR    0 Start Sim        0   0.00   0.0    0  0.0  0.00  0.00  0.00  0.00     7
 22 APR    0 Sowing           0   0.00   0.0    0  0.0  0.00  0.00  0.00  0.00     8
 23 APR    1 Germinate        0   0.00   0.0    0  0.0  0.00  0.00  0.00  0.00     9
 27 APR    5 Emergence       25   0.00   2.3    1  4.4  0.00  0.01  0.00  0.00     1
 14 MAY   22 End Juveni     316   0.58  10.3   11  3.4  0.00  0.00  0.00  0.00     2
 22 MAY   30 Floral Ini     858   1.20  13.8   17  2.0  0.00  0.26  0.00  0.00     3
  2 JUL   71 75% Silkin    8855   4.27  28.3  176  2.0  0.03  0.12  0.00  0.00     4
 13 JUL   82 Beg Gr Fil   11388   4.19  28.3  177  1.6  0.00  0.00  0.00  0.00     5
 30 AUG  130 End Gr Fil   15946   0.99  28.3  181  1.1  0.67  0.00  0.00  0.00     6
  2 SEP  133 Maturity     15946   0.99  28.3  181  1.1  0.58  0.00  0.00  0.00    10
  2 SEP  133 Harvest      15946   0.99  28.3  181  1.1  0.00  0.00  0.00  0.00    10


*MAIN GROWTH AND DEVELOPMENT VARIABLES

@     VARIABLE                                         SIMULATED     MEASURED
      --------                                         ---------     --------
      Anthesis day (dap)                                      71          -99
      Physiological maturity day (dap)                       133          -99
      Yield at harvest maturity (kg [dm]/ha)                6261          -99
      Number at maturity (no/m2)                            2970          -99
      Unit wt at maturity (g [dm]/unit)                   0.2108          -99
      Number at maturity (no/unit)                         479.1          -99
      Tops weight at maturity (kg [dm]/ha)                 15946          -99
      By-product produced (stalk) at maturity (kg[dm]/ha    9769          -99
      Leaf area index, maximum                              4.28          -99
      Harvest index at maturity                            0.393          -99
      Grain N at maturity (kg/ha)                            114          -99
      Tops N at maturity (kg/ha)                             181          -99
      Stem N at maturity (kg/ha)                              68          -99
      Grain N at maturity (%)                                1.8          -99
      Tops weight at anthesis (kg [dm]/ha)                  8597          -99
      Tops N at anthesis (kg/ha)                             175          -99
      Leaf number per stem at maturity                     28.33          -99
      Emergence day (dap)                                      5          -99


*ENVIRONMENTAL AND STRESS FACTORS

 |-----Development Phase------|--------------------------------------Environment--------------------------------------|-----------------Stress-----------------|
                              |---------------Average--------------|-----Cumulative-----|--------Count of days--------|          (0=Min, 1=Max Stress)         |
                         Time  Temp  Temp  Temp Solar Photop                Evapo    Pot TMIN TMIN TMAX TMAX TMAX RAIN|----Water----|---Nitrogen--|-Phosphorus-|
                         Span   Max   Min  Mean   Rad  [day]    CO2   Rain  Trans     ET   <    <    >    >    >    >   Photo         Photo         Photo
                         days    邂    邂    邂 MJ/m2     hr    ppm     mm     mm     mm  0邂  2邂 30邂 32邂 34邂  0mm  synth Growth  synth Growth  synth Growth
----------------------------------------------------------------------------------------------------------------------------------------------------------------
 Emergence-End Juvenile    17  30.9  19.0  25.0  16.6  24.00  386.9   46.9   43.4   78.3    0    0   11    3    1   10  0.000  0.002  0.002  0.006  0.000  0.000
 End Juvenil-Floral Init    8  31.9  18.6  25.3  15.4  24.00  387.1    0.5   19.4   32.2    0    0    7    2    0    1  0.000  0.000  0.077  0.193  0.000  0.000
 Floral Init-End Lf Grow   41  30.2  18.8  24.5  15.6  24.00  387.2  207.6  146.9  154.6    0    0   18    7    1   18  0.000  0.034  0.065  0.129  0.000  0.000
 End Lf Grth-Beg Grn Fil   11  29.7  18.3  24.0  16.0  24.00  387.3    2.5   40.8   41.0    0    0    3    1    0    2  0.000  0.000  0.000  0.000  0.000  0.000
 Grain Filling Phase       48  32.5  18.6  25.5  17.8  23.98  387.5   61.6   96.5  212.3    0    0   43   24    6   11  0.589  0.657  0.000  0.000  0.000  0.000


 Planting to Harvest      133  31.3  18.7  25.0  16.7  23.92  387.3  333.4  358.3  557.2    0    0   89   41   10   45  0.225  0.261  0.025  0.052  0.000  0.000
----------------------------------------------------------------------------------------------------------------------------------------------------------------


*Resource Productivity
 Growing season length: 133 days 

 Precipitation during growing season       333.4 mm[rain]
   Dry Matter Productivity                  4.78 kg[DM]/m3[rain]          =   47.8 kg[DM]/ha per mm[rain]
   Yield Productivity                       1.88 kg[grain yield]/m3[rain] =   18.8 kg[yield]/ha per mm[rain]

 Evapotranspiration during growing season  358.3 mm[ET]
   Dry Matter Productivity                  4.45 kg[DM]/m3[ET]            =   44.5 kg[DM]/ha per mm[ET]
   Yield Productivity                       1.75 kg[grain yield]/m3[ET]   =   17.5 kg[yield]/ha per mm[ET]

 Transpiration during growing season       246.7 mm[EP]
   Dry Matter Productivity                  6.46 kg[DM]/m3[EP]            =   64.6 kg[DM]/ha per mm[EP]
   Yield Productivity                       2.54 kg[grain yield]/m3[EP]   =   25.4 kg[yield]/ha per mm[EP]

 N applied during growing season            161. kg[N applied]/ha
   Dry Matter Productivity                  99.0 kg[DM]/kg[N applied]
   Yield Productivity                       38.9 kg[yield]/kg[N applied]

 N uptake during growing season              195 kg[N uptake]/ha
   Dry Matter Productivity                  81.8 kg[DM]/kg[N uptake]
   Yield Productivity                       32.1 kg[yield]/kg[N uptake]

--------------------------------------------------------------------------------------------------------------

                     Maize YIELD :     6261 kg/ha    [Dry weight] 

**************************************************************************************************************

*DSSAT Cropping System Model Ver. 4.6.1.000 -release      OCT 24, 2017; 10:50:19
                                                                                
*RUN   6        : P04/27                    MZCER046 ANBU2009    6              
 MODEL          : MZCER046 - Maize                                              
 EXPERIMENT     : ANBU2009 MZ  Analisis a침os de bajo rendimiento Buga          
 DATA PATH      : C:\DSSAT46\maize\                                             
 TREATMENT  6   : P04/27                    MZCER046                            
                                                                                
                                                                                
 CROP           : Maize            CULTIVAR : DK234            ECOTYPE :IB0001  
 STARTING DATE  : MAR 28 2009                                                   
 PLANTING DATE  : APR 27 2009        PLANTS/m2 :  6.2     ROW SPACING :  80.cm  
 WEATHER        : CUNI   2009                                                   
 SOIL           : CCBUGA2017     TEXTURE : CL    -   Suelo Buga MADR Fase I     
 SOIL INITIAL C : DEPTH: 90cm EXTR. H2O: 83.9mm  NO3:  0.0kg/ha  NH4:  0.0kg/ha 
 WATER BALANCE  : RAINFED                                                       
 IRRIGATION     : NOT IRRIGATED                                                 
 NITROGEN BAL.  : SOIL-N & N-UPTAKE SIMULATION; NO N-FIXATION                   
 N-FERTILIZER   :      161 kg/ha IN     5 APPLICATIONS                          
 RESIDUE/MANURE : INITIAL :     0 kg/ha ;       0 kg/ha IN     0 APPLICATIONS   
 ENVIRONM. OPT. : DAYL=    0.00  SRAD=    0.00  TMAX=    0.00  TMIN=    0.00    
                  RAIN=    0.00  CO2 =    0.00  DEW =    0.00  WIND=    0.00    
 SIMULATION OPT : WATER   :Y  NITROGEN:Y  N-FIX:N  PHOSPH :N  PESTS  :N         
                  PHOTO   :C  ET      :R  INFIL:S  HYDROL :R  SOM    :G         
                  CO2 387ppm  NSWIT   :1  EVAP :S  SOIL   :2  STEMP  :D         
 MANAGEMENT OPT : PLANTING:R  IRRIG   :N  FERT :D  RESIDUE:R  HARVEST:M         
                  WEATHER :M  TILLAGE :N                                        
                                                                                
*SUMMARY OF SOIL AND GENETIC INPUT PARAMETERS                                   
                                                                                
   SOIL LOWER UPPER   SAT  EXTR  INIT   ROOT   BULK     pH    NO3    NH4    ORG 
  DEPTH LIMIT LIMIT    SW    SW    SW   DIST   DENS                          C  
   cm   cm3/cm3    cm3/cm3    cm3/cm3         g/cm3         ugN/g  ugN/g     %  
------------------------------------------------------------------------------- 
  0-  5 0.215 0.331 0.341 0.116 0.331   1.00   1.68   6.70   0.00   0.00   0.75 
  5- 15 0.215 0.331 0.341 0.116 0.331   1.00   1.68   6.70   0.00   0.00   0.75 
 15- 25 0.215 0.331 0.341 0.116 0.331   1.00   1.68   6.70   0.00   0.00   0.75 
 25- 35 0.181 0.291 0.364 0.110 0.291   0.50   1.61   7.20   0.00   0.00   0.53 
 35- 45 0.181 0.291 0.364 0.110 0.291   0.50   1.61   7.20   0.00   0.00   0.53 
 45- 67 0.096 0.169 0.404 0.073 0.169   0.27   1.51   7.00   0.00   0.00   0.05 
 67- 90 0.096 0.169 0.404 0.073 0.169   0.27   1.51   7.00   0.00   0.00   0.05 
                                                                                
TOT- 90  13.3  21.7  34.0   8.4  21.7  <--cm   -  kg/ha-->    0.0    0.0  51964 
SOIL ALBEDO    : 0.09      EVAPORATION LIMIT : 6.00         MIN. FACTOR  : 1.00 
RUNOFF CURVE # :76.00      DRAINAGE RATE     : 0.60         FERT. FACTOR : 1.00 
                                                                                
 Maize      CULTIVAR :CI0002-DK234              ECOTYPE :IB0001                 
 P1     : 300.00  P2     : 0.4000  P5     :1075.00                              
 G2     : 890.00  G3     :  7.750  PHINT  : 40.000                              


*SIMULATED CROP AND SOIL STATUS AT MAIN DEVELOPMENT STAGES

 RUN NO.     6     P04/27                  

        CROP GROWTH     BIOMASS         LEAF   CROP N     STRESS      STRESS                                           
   DATE  AGE STAGE        kg/ha    LAI   NUM  kg/ha  %   H2O  Nitr Phos1 Phos2  RSTG                                   
 ------  --- ----------   -----  -----  ----  ---  ---  ----  ----  ----  ----  ----                                   
 28 MAR    0 Start Sim        0   0.00   0.0    0  0.0  0.00  0.00  0.00  0.00     7
 27 APR    0 Sowing           0   0.00   0.0    0  0.0  0.00  0.00  0.00  0.00     8
 28 APR    1 Germinate        0   0.00   0.0    0  0.0  0.00  0.00  0.00  0.00     9
  3 MAY    6 Emergence       25   0.00   2.1    1  4.4  0.00  0.01  0.00  0.00     1
 20 MAY   23 End Juveni     358   0.64  10.3   11  3.1  0.00  0.00  0.00  0.00     2
 28 MAY   31 Floral Ini     809   1.10  13.8   23  2.9  0.00  0.38  0.00  0.00     3
  9 JUL   73 75% Silkin    9092   4.54  28.4  173  1.9  0.00  0.03  0.00  0.00     4
 19 JUL   83 Beg Gr Fil   11129   3.97  28.4  173  1.6  0.33  0.00  0.00  0.00     5
  5 SEP  131 End Gr Fil   14889   0.82  28.4  174  1.2  0.71  0.00  0.00  0.00     6
  8 SEP  134 Maturity     14889   0.82  28.4  174  1.2  0.98  0.00  0.00  0.00    10
  8 SEP  134 Harvest      14889   0.82  28.4  174  1.2  0.00  0.00  0.00  0.00    10


*MAIN GROWTH AND DEVELOPMENT VARIABLES

@     VARIABLE                                         SIMULATED     MEASURED
      --------                                         ---------     --------
      Anthesis day (dap)                                      73          -99
      Physiological maturity day (dap)                       134          -99
      Yield at harvest maturity (kg [dm]/ha)                5487          -99
      Number at maturity (no/m2)                            2846          -99
      Unit wt at maturity (g [dm]/unit)                   0.1928          -99
      Number at maturity (no/unit)                         459.1          -99
      Tops weight at maturity (kg [dm]/ha)                 14889          -99
      By-product produced (stalk) at maturity (kg[dm]/ha    9486          -99
      Leaf area index, maximum                              4.56          -99
      Harvest index at maturity                            0.369          -99
      Grain N at maturity (kg/ha)                            100          -99
      Tops N at maturity (kg/ha)                             174          -99
      Stem N at maturity (kg/ha)                              74          -99
      Grain N at maturity (%)                                1.8          -99
      Tops weight at anthesis (kg [dm]/ha)                  8821          -99
      Tops N at anthesis (kg/ha)                             173          -99
      Leaf number per stem at maturity                     28.41          -99
      Emergence day (dap)                                      6          -99


*ENVIRONMENTAL AND STRESS FACTORS

 |-----Development Phase------|--------------------------------------Environment--------------------------------------|-----------------Stress-----------------|
                              |---------------Average--------------|-----Cumulative-----|--------Count of days--------|          (0=Min, 1=Max Stress)         |
                         Time  Temp  Temp  Temp Solar Photop                Evapo    Pot TMIN TMIN TMAX TMAX TMAX RAIN|----Water----|---Nitrogen--|-Phosphorus-|
                         Span   Max   Min  Mean   Rad  [day]    CO2   Rain  Trans     ET   <    <    >    >    >    >   Photo         Photo         Photo
                         days    邂    邂    邂 MJ/m2     hr    ppm     mm     mm     mm  0邂  2邂 30邂 32邂 34邂  0mm  synth Growth  synth Growth  synth Growth
----------------------------------------------------------------------------------------------------------------------------------------------------------------
 Emergence-End Juvenile    17  31.2  18.5  24.9  16.8  24.00  387.0   13.1   32.7   78.9    0    0   13    2    0    6  0.000  0.005  0.002  0.005  0.000  0.000
 End Juvenil-Floral Init    8  32.1  19.0  25.5  15.1  24.00  387.1    4.9   19.3   31.6    0    0    7    4    0    2  0.000  0.000  0.126  0.302  0.000  0.000
 Floral Init-End Lf Grow   42  29.7  18.7  24.2  15.5  24.00  387.2  205.2  151.6  155.1    0    0   13    4    1   18  0.000  0.000  0.018  0.040  0.000  0.000
 End Lf Grth-Beg Grn Fil   10  31.7  17.9  24.8  18.0  24.00  387.3    0.0   35.9   42.5    0    0    9    3    0    0  0.157  0.248  0.003  0.006  0.000  0.000
 Grain Filling Phase       48  32.7  18.7  25.7  17.9  23.46  387.5   67.0   85.3  216.9    0    0   43   26    9   13  0.659  0.711  0.000  0.000  0.000  0.000


 Planting to Harvest      134  31.4  18.7  25.1  16.8  23.66  387.3  324.5  344.3  568.8    0    0   91   44   14   44  0.269  0.296  0.013  0.032  0.000  0.000
----------------------------------------------------------------------------------------------------------------------------------------------------------------


*Resource Productivity
 Growing season length: 134 days 

 Precipitation during growing season       324.5 mm[rain]
   Dry Matter Productivity                  4.59 kg[DM]/m3[rain]          =   45.9 kg[DM]/ha per mm[rain]
   Yield Productivity                       1.69 kg[grain yield]/m3[rain] =   16.9 kg[yield]/ha per mm[rain]

 Evapotranspiration during growing season  344.3 mm[ET]
   Dry Matter Productivity                  4.32 kg[DM]/m3[ET]            =   43.2 kg[DM]/ha per mm[ET]
   Yield Productivity                       1.59 kg[grain yield]/m3[ET]   =   15.9 kg[yield]/ha per mm[ET]

 Transpiration during growing season       229.9 mm[EP]
   Dry Matter Productivity                  6.47 kg[DM]/m3[EP]            =   64.7 kg[DM]/ha per mm[EP]
   Yield Productivity                       2.39 kg[grain yield]/m3[EP]   =   23.9 kg[yield]/ha per mm[EP]

 N applied during growing season            161. kg[N applied]/ha
   Dry Matter Productivity                  92.5 kg[DM]/kg[N applied]
   Yield Productivity                       34.1 kg[yield]/kg[N applied]

 N uptake during growing season              193 kg[N uptake]/ha
   Dry Matter Productivity                  77.1 kg[DM]/kg[N uptake]
   Yield Productivity                       28.4 kg[yield]/kg[N uptake]

--------------------------------------------------------------------------------------------------------------

                     Maize YIELD :     5487 kg/ha    [Dry weight] 

**************************************************************************************************************

*DSSAT Cropping System Model Ver. 4.6.1.000 -release      OCT 24, 2017; 10:50:19
                                                                                
*RUN   7        : P05/02                    MZCER046 ANBU2009    7              
 MODEL          : MZCER046 - Maize                                              
 EXPERIMENT     : ANBU2009 MZ  Analisis a침os de bajo rendimiento Buga          
 DATA PATH      : C:\DSSAT46\maize\                                             
 TREATMENT  7   : P05/02                    MZCER046                            
                                                                                
                                                                                
 CROP           : Maize            CULTIVAR : DK234            ECOTYPE :IB0001  
 STARTING DATE  : APR  2 2009                                                   
 PLANTING DATE  : MAY  2 2009        PLANTS/m2 :  6.2     ROW SPACING :  80.cm  
 WEATHER        : CUNI   2009                                                   
 SOIL           : CCBUGA2017     TEXTURE : CL    -   Suelo Buga MADR Fase I     
 SOIL INITIAL C : DEPTH: 90cm EXTR. H2O: 83.9mm  NO3:  0.0kg/ha  NH4:  0.0kg/ha 
 WATER BALANCE  : RAINFED                                                       
 IRRIGATION     : NOT IRRIGATED                                                 
 NITROGEN BAL.  : SOIL-N & N-UPTAKE SIMULATION; NO N-FIXATION                   
 N-FERTILIZER   :      161 kg/ha IN     5 APPLICATIONS                          
 RESIDUE/MANURE : INITIAL :     0 kg/ha ;       0 kg/ha IN     0 APPLICATIONS   
 ENVIRONM. OPT. : DAYL=    0.00  SRAD=    0.00  TMAX=    0.00  TMIN=    0.00    
                  RAIN=    0.00  CO2 =    0.00  DEW =    0.00  WIND=    0.00    
 SIMULATION OPT : WATER   :Y  NITROGEN:Y  N-FIX:N  PHOSPH :N  PESTS  :N         
                  PHOTO   :C  ET      :R  INFIL:S  HYDROL :R  SOM    :G         
                  CO2 387ppm  NSWIT   :1  EVAP :S  SOIL   :2  STEMP  :D         
 MANAGEMENT OPT : PLANTING:R  IRRIG   :N  FERT :D  RESIDUE:R  HARVEST:M         
                  WEATHER :M  TILLAGE :N                                        
                                                                                
*SUMMARY OF SOIL AND GENETIC INPUT PARAMETERS                                   
                                                                                
   SOIL LOWER UPPER   SAT  EXTR  INIT   ROOT   BULK     pH    NO3    NH4    ORG 
  DEPTH LIMIT LIMIT    SW    SW    SW   DIST   DENS                          C  
   cm   cm3/cm3    cm3/cm3    cm3/cm3         g/cm3         ugN/g  ugN/g     %  
------------------------------------------------------------------------------- 
  0-  5 0.215 0.331 0.341 0.116 0.331   1.00   1.68   6.70   0.00   0.00   0.75 
  5- 15 0.215 0.331 0.341 0.116 0.331   1.00   1.68   6.70   0.00   0.00   0.75 
 15- 25 0.215 0.331 0.341 0.116 0.331   1.00   1.68   6.70   0.00   0.00   0.75 
 25- 35 0.181 0.291 0.364 0.110 0.291   0.50   1.61   7.20   0.00   0.00   0.53 
 35- 45 0.181 0.291 0.364 0.110 0.291   0.50   1.61   7.20   0.00   0.00   0.53 
 45- 67 0.096 0.169 0.404 0.073 0.169   0.27   1.51   7.00   0.00   0.00   0.05 
 67- 90 0.096 0.169 0.404 0.073 0.169   0.27   1.51   7.00   0.00   0.00   0.05 
                                                                                
TOT- 90  13.3  21.7  34.0   8.4  21.7  <--cm   -  kg/ha-->    0.0    0.0  51964 
SOIL ALBEDO    : 0.09      EVAPORATION LIMIT : 6.00         MIN. FACTOR  : 1.00 
RUNOFF CURVE # :76.00      DRAINAGE RATE     : 0.60         FERT. FACTOR : 1.00 
                                                                                
 Maize      CULTIVAR :CI0002-DK234              ECOTYPE :IB0001                 
 P1     : 300.00  P2     : 0.4000  P5     :1075.00                              
 G2     : 890.00  G3     :  7.750  PHINT  : 40.000                              


*SIMULATED CROP AND SOIL STATUS AT MAIN DEVELOPMENT STAGES

 RUN NO.     7     P05/02                  

        CROP GROWTH     BIOMASS         LEAF   CROP N     STRESS      STRESS                                           
   DATE  AGE STAGE        kg/ha    LAI   NUM  kg/ha  %   H2O  Nitr Phos1 Phos2  RSTG                                   
 ------  --- ----------   -----  -----  ----  ---  ---  ----  ----  ----  ----  ----                                   
  2 APR    0 Start Sim        0   0.00   0.0    0  0.0  0.00  0.00  0.00  0.00     7
  2 MAY    0 Sowing           0   0.00   0.0    0  0.0  0.00  0.00  0.00  0.00     8
  3 MAY    1 Germinate        0   0.00   0.0    0  0.0  0.00  0.00  0.00  0.00     9
  8 MAY    6 Emergence       25   0.00   2.2    1  4.4  0.00  0.01  0.00  0.00     1
 24 MAY   22 End Juveni     330   0.60   9.9   10  2.9  0.01  0.00  0.00  0.00     2
  1 JUN   30 Floral Ini     886   1.31  13.4   32  3.6  0.00  0.14  0.00  0.00     3
 12 JUL   71 75% Silkin    9316   4.63  27.5  173  1.9  0.00  0.05  0.00  0.00     4
 22 JUL   81 Beg Gr Fil   10419   3.67  27.5  174  1.7  0.59  0.02  0.00  0.00     5
  8 SEP  129 End Gr Fil   13541   0.72  27.5  174  1.3  0.73  0.00  0.00  0.00     6
 11 SEP  132 Maturity     13541   0.72  27.5  174  1.3  0.97  0.00  0.00  0.00    10
 11 SEP  132 Harvest      13541   0.72  27.5  174  1.3  0.00  0.00  0.00  0.00    10


*MAIN GROWTH AND DEVELOPMENT VARIABLES

@     VARIABLE                                         SIMULATED     MEASURED
      --------                                         ---------     --------
      Anthesis day (dap)                                      71          -99
      Physiological maturity day (dap)                       132          -99
      Yield at harvest maturity (kg [dm]/ha)                4752          -99
      Number at maturity (no/m2)                            2019          -99
      Unit wt at maturity (g [dm]/unit)                   0.2354          -99
      Number at maturity (no/unit)                         325.6          -99
      Tops weight at maturity (kg [dm]/ha)                 13541          -99
      By-product produced (stalk) at maturity (kg[dm]/ha    8876          -99
      Leaf area index, maximum                              4.66          -99
      Harvest index at maturity                            0.351          -99
      Grain N at maturity (kg/ha)                             87          -99
      Tops N at maturity (kg/ha)                             174          -99
      Stem N at maturity (kg/ha)                              87          -99
      Grain N at maturity (%)                                1.8          -99
      Tops weight at anthesis (kg [dm]/ha)                  8999          -99
      Tops N at anthesis (kg/ha)                             173          -99
      Leaf number per stem at maturity                     27.52          -99
      Emergence day (dap)                                      6          -99


*ENVIRONMENTAL AND STRESS FACTORS

 |-----Development Phase------|--------------------------------------Environment--------------------------------------|-----------------Stress-----------------|
                              |---------------Average--------------|-----Cumulative-----|--------Count of days--------|          (0=Min, 1=Max Stress)         |
                         Time  Temp  Temp  Temp Solar Photop                Evapo    Pot TMIN TMIN TMAX TMAX TMAX RAIN|----Water----|---Nitrogen--|-Phosphorus-|
                         Span   Max   Min  Mean   Rad  [day]    CO2   Rain  Trans     ET   <    <    >    >    >    >   Photo         Photo         Photo
                         days    邂    邂    邂 MJ/m2     hr    ppm     mm     mm     mm  0邂  2邂 30邂 32邂 34邂  0mm  synth Growth  synth Growth  synth Growth
----------------------------------------------------------------------------------------------------------------------------------------------------------------
 Emergence-End Juvenile    16  31.8  18.4  25.1  16.0  24.00  387.0    8.3   19.0   70.6    0    0   13    4    0    5  0.000  0.007  0.002  0.005  0.000  0.000
 End Juvenil-Floral Init    8  31.3  19.0  25.1  16.5  24.00  387.1   33.1   23.6   34.5    0    0    5    3    0    4  0.000  0.003  0.056  0.140  0.000  0.000
 Floral Init-End Lf Grow   41  29.7  18.7  24.2  15.6  24.00  387.2  174.0  148.3  152.1    0    0   14    3    1   15  0.000  0.000  0.020  0.050  0.000  0.000
 End Lf Grth-Beg Grn Fil   10  32.6  18.1  25.4  18.5  24.00  387.4   10.0   25.5   44.3    0    0   10    5    0    1  0.444  0.591  0.012  0.030  0.000  0.000
 Grain Filling Phase       48  32.8  18.7  25.8  18.0  23.05  387.6   57.0   84.5  220.1    0    0   43   27   12   12  0.663  0.713  0.000  0.000  0.000  0.000


 Planting to Harvest      132  31.5  18.7  25.1  16.9  23.48  387.3  296.3  321.3  562.5    0    0   92   45   14   40  0.296  0.327  0.011  0.027  0.000  0.000
----------------------------------------------------------------------------------------------------------------------------------------------------------------


*Resource Productivity
 Growing season length: 132 days 

 Precipitation during growing season       296.3 mm[rain]
   Dry Matter Productivity                  4.57 kg[DM]/m3[rain]          =   45.7 kg[DM]/ha per mm[rain]
   Yield Productivity                       1.60 kg[grain yield]/m3[rain] =   16.0 kg[yield]/ha per mm[rain]

 Evapotranspiration during growing season  321.3 mm[ET]
   Dry Matter Productivity                  4.21 kg[DM]/m3[ET]            =   42.1 kg[DM]/ha per mm[ET]
   Yield Productivity                       1.48 kg[grain yield]/m3[ET]   =   14.8 kg[yield]/ha per mm[ET]

 Transpiration during growing season       216.6 mm[EP]
   Dry Matter Productivity                  6.25 kg[DM]/m3[EP]            =   62.5 kg[DM]/ha per mm[EP]
   Yield Productivity                       2.19 kg[grain yield]/m3[EP]   =   21.9 kg[yield]/ha per mm[EP]

 N applied during growing season            161. kg[N applied]/ha
   Dry Matter Productivity                  84.1 kg[DM]/kg[N applied]
   Yield Productivity                       29.5 kg[yield]/kg[N applied]

 N uptake during growing season              192 kg[N uptake]/ha
   Dry Matter Productivity                  70.5 kg[DM]/kg[N uptake]
   Yield Productivity                       24.8 kg[yield]/kg[N uptake]

--------------------------------------------------------------------------------------------------------------

                     Maize YIELD :     4752 kg/ha    [Dry weight] 

**************************************************************************************************************

*DSSAT Cropping System Model Ver. 4.6.1.000 -release      OCT 24, 2017; 10:50:19
                                                                                
*RUN   8        : P05/07                    MZCER046 ANBU2009    8              
 MODEL          : MZCER046 - Maize                                              
 EXPERIMENT     : ANBU2009 MZ  Analisis a침os de bajo rendimiento Buga          
 DATA PATH      : C:\DSSAT46\maize\                                             
 TREATMENT  8   : P05/07                    MZCER046                            
                                                                                
                                                                                
 CROP           : Maize            CULTIVAR : DK234            ECOTYPE :IB0001  
 STARTING DATE  : APR  7 2009                                                   
 PLANTING DATE  : MAY  7 2009        PLANTS/m2 :  6.2     ROW SPACING :  80.cm  
 WEATHER        : CUNI   2009                                                   
 SOIL           : CCBUGA2017     TEXTURE : CL    -   Suelo Buga MADR Fase I     
 SOIL INITIAL C : DEPTH: 90cm EXTR. H2O: 83.9mm  NO3:  0.0kg/ha  NH4:  0.0kg/ha 
 WATER BALANCE  : RAINFED                                                       
 IRRIGATION     : NOT IRRIGATED                                                 
 NITROGEN BAL.  : SOIL-N & N-UPTAKE SIMULATION; NO N-FIXATION                   
 N-FERTILIZER   :      161 kg/ha IN     5 APPLICATIONS                          
 RESIDUE/MANURE : INITIAL :     0 kg/ha ;       0 kg/ha IN     0 APPLICATIONS   
 ENVIRONM. OPT. : DAYL=    0.00  SRAD=    0.00  TMAX=    0.00  TMIN=    0.00    
                  RAIN=    0.00  CO2 =    0.00  DEW =    0.00  WIND=    0.00    
 SIMULATION OPT : WATER   :Y  NITROGEN:Y  N-FIX:N  PHOSPH :N  PESTS  :N         
                  PHOTO   :C  ET      :R  INFIL:S  HYDROL :R  SOM    :G         
                  CO2 387ppm  NSWIT   :1  EVAP :S  SOIL   :2  STEMP  :D         
 MANAGEMENT OPT : PLANTING:R  IRRIG   :N  FERT :D  RESIDUE:R  HARVEST:M         
                  WEATHER :M  TILLAGE :N                                        
                                                                                
*SUMMARY OF SOIL AND GENETIC INPUT PARAMETERS                                   
                                                                                
   SOIL LOWER UPPER   SAT  EXTR  INIT   ROOT   BULK     pH    NO3    NH4    ORG 
  DEPTH LIMIT LIMIT    SW    SW    SW   DIST   DENS                          C  
   cm   cm3/cm3    cm3/cm3    cm3/cm3         g/cm3         ugN/g  ugN/g     %  
------------------------------------------------------------------------------- 
  0-  5 0.215 0.331 0.341 0.116 0.331   1.00   1.68   6.70   0.00   0.00   0.75 
  5- 15 0.215 0.331 0.341 0.116 0.331   1.00   1.68   6.70   0.00   0.00   0.75 
 15- 25 0.215 0.331 0.341 0.116 0.331   1.00   1.68   6.70   0.00   0.00   0.75 
 25- 35 0.181 0.291 0.364 0.110 0.291   0.50   1.61   7.20   0.00   0.00   0.53 
 35- 45 0.181 0.291 0.364 0.110 0.291   0.50   1.61   7.20   0.00   0.00   0.53 
 45- 67 0.096 0.169 0.404 0.073 0.169   0.27   1.51   7.00   0.00   0.00   0.05 
 67- 90 0.096 0.169 0.404 0.073 0.169   0.27   1.51   7.00   0.00   0.00   0.05 
                                                                                
TOT- 90  13.3  21.7  34.0   8.4  21.7  <--cm   -  kg/ha-->    0.0    0.0  51964 
SOIL ALBEDO    : 0.09      EVAPORATION LIMIT : 6.00         MIN. FACTOR  : 1.00 
RUNOFF CURVE # :76.00      DRAINAGE RATE     : 0.60         FERT. FACTOR : 1.00 
                                                                                
 Maize      CULTIVAR :CI0002-DK234              ECOTYPE :IB0001                 
 P1     : 300.00  P2     : 0.4000  P5     :1075.00                              
 G2     : 890.00  G3     :  7.750  PHINT  : 40.000                              


*SIMULATED CROP AND SOIL STATUS AT MAIN DEVELOPMENT STAGES

 RUN NO.     8     P05/07                  

        CROP GROWTH     BIOMASS         LEAF   CROP N     STRESS      STRESS                                           
   DATE  AGE STAGE        kg/ha    LAI   NUM  kg/ha  %   H2O  Nitr Phos1 Phos2  RSTG                                   
 ------  --- ----------   -----  -----  ----  ---  ---  ----  ----  ----  ----  ----                                   
  7 APR    0 Start Sim        0   0.00   0.0    0  0.0  0.00  0.00  0.00  0.00     7
  7 MAY    0 Sowing           0   0.00   0.0    0  0.0  0.00  0.00  0.00  0.00     8
  8 MAY    1 Germinate        0   0.00   0.0    0  0.0  0.00  0.00  0.00  0.00     9
 13 MAY    6 Emergence       25   0.00   2.2    1  4.4  0.00  0.01  0.00  0.00     1
 29 MAY   22 End Juveni     321   0.58   9.9   11  3.5  0.03  0.00  0.00  0.00     2
  6 JUN   30 Floral Ini     904   1.34  13.5   33  3.6  0.00  0.00  0.00  0.00     3
 18 JUL   72 75% Silkin    8850   4.09  27.8  171  1.9  0.09  0.05  0.00  0.00     4
 28 JUL   82 Beg Gr Fil    9461   2.96  27.8  173  1.8  0.72  0.01  0.00  0.00     5
 13 SEP  129 End Gr Fil   11877   0.57  27.8  173  1.5  0.75  0.00  0.00  0.00     6
 16 SEP  132 Maturity     11877   0.57  27.8  173  1.5  0.32  0.00  0.00  0.00    10
[...]
 NITROGEN BAL.  : SOIL-N & N-UPTAKE SIMULATION; NO N-FIXATION                   
 N-FERTILIZER   :      161 kg/ha IN     5 APPLICATIONS                          
 RESIDUE/MANURE : INITIAL :     0 kg/ha ;       0 kg/ha IN     0 APPLICATIONS   
 ENVIRONM. OPT. : DAYL=    0.00  SRAD=    0.00  TMAX=    0.00  TMIN=    0.00    
                  RAIN=    0.00  CO2 =    0.00  DEW =    0.00  WIND=    0.00    
 SIMULATION OPT : WATER   :Y  NITROGEN:Y  N-FIX:N  PHOSPH :N  PESTS  :N         
                  PHOTO   :C  ET      :R  INFIL:S  HYDROL :R  SOM    :G         
                  CO2 388ppm  NSWIT   :1  EVAP :S  SOIL   :2  STEMP  :D         
 MANAGEMENT OPT : PLANTING:R  IRRIG   :N  FERT :D  RESIDUE:R  HARVEST:M         
                  WEATHER :M  TILLAGE :N                                        
                                                                                
*SUMMARY OF SOIL AND GENETIC INPUT PARAMETERS                                   
                                                                                
   SOIL LOWER UPPER   SAT  EXTR  INIT   ROOT   BULK     pH    NO3    NH4    ORG 
  DEPTH LIMIT LIMIT    SW    SW    SW   DIST   DENS                          C  
   cm   cm3/cm3    cm3/cm3    cm3/cm3         g/cm3         ugN/g  ugN/g     %  
------------------------------------------------------------------------------- 
  0-  5 0.215 0.331 0.341 0.116 0.331   1.00   1.68   6.70   0.00   0.00   0.75 
  5- 15 0.215 0.331 0.341 0.116 0.331   1.00   1.68   6.70   0.00   0.00   0.75 
 15- 25 0.215 0.331 0.341 0.116 0.331   1.00   1.68   6.70   0.00   0.00   0.75 
 25- 35 0.181 0.291 0.364 0.110 0.291   0.50   1.61   7.20   0.00   0.00   0.53 
 35- 45 0.181 0.291 0.364 0.110 0.291   0.50   1.61   7.20   0.00   0.00   0.53 
 45- 67 0.096 0.169 0.404 0.073 0.169   0.27   1.51   7.00   0.00   0.00   0.05 
 67- 90 0.096 0.169 0.404 0.073 0.169   0.27   1.51   7.00   0.00   0.00   0.05 
                                                                                
TOT- 90  13.3  21.7  34.0   8.4  21.7  <--cm   -  kg/ha-->    0.0    0.0  51964 
SOIL ALBEDO    : 0.09      EVAPORATION LIMIT : 6.00         MIN. FACTOR  : 1.00 
RUNOFF CURVE # :76.00      DRAINAGE RATE     : 0.60         FERT. FACTOR : 1.00 
                                                                                
 Maize      CULTIVAR :CI0002-DK234              ECOTYPE :IB0001                 
 P1     : 300.00  P2     : 0.4000  P5     :1075.00                              
 G2     : 890.00  G3     :  7.750  PHINT  : 40.000                              


*SIMULATED CROP AND SOIL STATUS AT MAIN DEVELOPMENT STAGES

 RUN NO.    35     P12/14                  

        CROP GROWTH     BIOMASS         LEAF   CROP N     STRESS      STRESS                                           
   DATE  AGE STAGE        kg/ha    LAI   NUM  kg/ha  %   H2O  Nitr Phos1 Phos2  RSTG                                   
 ------  --- ----------   -----  -----  ----  ---  ---  ----  ----  ----  ----  ----                                   
 14 NOV    0 Start Sim        0   0.00   0.0    0  0.0  0.00  0.00  0.00  0.00     7
 14 DEC    0 Sowing           0   0.00   0.0    0  0.0  0.00  0.00  0.00  0.00     8
 15 DEC    1 Germinate        0   0.00   0.0    0  0.0  0.00  0.00  0.00  0.00     9
 20 DEC    6 Emergence       25   0.00   2.1    1  4.4  0.00  0.01  0.00  0.00     1
  6 JAN   23 End Juveni     311   0.57  10.3    9  3.0  0.00  0.00  0.00  0.00     2
 10 JAN   27 Floral Ini     568   0.89  12.1   11  2.0  0.00  0.30  0.00  0.00     3
 13 FEB   61 75% Silkin    2069   0.65  25.3   48  2.3  0.55  0.68  0.00  0.00     4
 22 FEB   70 Beg Gr Fil    2014   0.45  25.3   48  2.4  0.87  0.00  0.00  0.00     5
  8 APR  115 End Gr Fil    3092   0.19  25.3   48  1.5  0.44  0.00  0.00  0.00     6
 12 APR  119 Maturity      3092   0.19  25.3   48  1.5  0.00  0.00  0.00  0.00    10
 12 APR  119 Harvest       3092   0.19  25.3   48  1.5  0.00  0.00  0.00  0.00    10


*MAIN GROWTH AND DEVELOPMENT VARIABLES

@     VARIABLE                                         SIMULATED     MEASURED
      --------                                         ---------     --------
      Anthesis day (dap)                                      61          -99
      Physiological maturity day (dap)                       119          -99
      Yield at harvest maturity (kg [dm]/ha)                1003          -99
      Number at maturity (no/m2)                             382          -99
      Unit wt at maturity (g [dm]/unit)                   0.2625          -99
      Number at maturity (no/unit)                          74.6          -99
      Tops weight at maturity (kg [dm]/ha)                  3092          -99
      By-product produced (stalk) at maturity (kg[dm]/ha    2125          -99
      Leaf area index, maximum                              1.09          -99
      Harvest index at maturity                            0.324          -99
      Grain N at maturity (kg/ha)                             18          -99
      Tops N at maturity (kg/ha)                              48          -99
      Stem N at maturity (kg/ha)                              26          -99
      Grain N at maturity (%)                                1.8          -99
      Tops weight at anthesis (kg [dm]/ha)                  2065          -99
      Tops N at anthesis (kg/ha)                              48          -99
      Leaf number per stem at maturity                     25.25          -99
      Emergence day (dap)                                      6          -99


*ENVIRONMENTAL AND STRESS FACTORS

 |-----Development Phase------|--------------------------------------Environment--------------------------------------|-----------------Stress-----------------|
                              |---------------Average--------------|-----Cumulative-----|--------Count of days--------|          (0=Min, 1=Max Stress)         |
                         Time  Temp  Temp  Temp Solar Photop                Evapo    Pot TMIN TMIN TMAX TMAX TMAX RAIN|----Water----|---Nitrogen--|-Phosphorus-|
                         Span   Max   Min  Mean   Rad  [day]    CO2   Rain  Trans     ET   <    <    >    >    >    >   Photo         Photo         Photo
                         days    邂    邂    邂 MJ/m2     hr    ppm     mm     mm     mm  0邂  2邂 30邂 32邂 34邂  0mm  synth Growth  synth Growth  synth Growth
----------------------------------------------------------------------------------------------------------------------------------------------------------------
 Emergence-End Juvenile    17  31.0  18.8  24.9  16.6   0.00  388.5   30.6   44.0   78.2    0    0   10    5    0    4  0.000  0.000  0.002  0.005  0.000  0.000
 End Juvenil-Floral Init    4  32.9  18.6  25.7  19.1   0.00  388.5    0.3    9.4   20.3    0    0    4    2    0    1  0.000  0.000  0.074  0.186  0.000  0.000
 Floral Init-End Lf Grow   34  33.3  19.1  26.2  18.2   0.00  388.7   15.7   60.9  163.9    0    0   30   23   14    5  0.396  0.522  0.469  0.695  0.000  0.000
 End Lf Grth-Beg Grn Fil    9  33.8  20.4  27.1  15.6   0.00  389.0    4.2   10.1   38.7    0    0    9    9    1    1  0.806  0.871  0.000  0.000  0.000  0.000
 Grain Filling Phase       45  33.2  20.3  26.8  16.6   9.24  389.1  102.3   69.1  211.2    0    0   42   33   14   16  0.400  0.456  0.000  0.000  0.000  0.000


 Planting to Harvest      119  32.7  19.6  26.2  16.9   4.14  388.9  206.0  210.7  552.9    0    0  100   75   29   33  0.325  0.388  0.137  0.205  0.000  0.000
----------------------------------------------------------------------------------------------------------------------------------------------------------------


*Resource Productivity
 Growing season length: 119 days 

 Precipitation during growing season       206.0 mm[rain]
   Dry Matter Productivity                  1.50 kg[DM]/m3[rain]          =   15.0 kg[DM]/ha per mm[rain]
   Yield Productivity                       0.49 kg[grain yield]/m3[rain] =    4.9 kg[yield]/ha per mm[rain]

 Evapotranspiration during growing season  210.7 mm[ET]
   Dry Matter Productivity                  1.47 kg[DM]/m3[ET]            =   14.7 kg[DM]/ha per mm[ET]
   Yield Productivity                       0.48 kg[grain yield]/m3[ET]   =    4.8 kg[yield]/ha per mm[ET]

 Transpiration during growing season        81.4 mm[EP]
   Dry Matter Productivity                  3.80 kg[DM]/m3[EP]            =   38.0 kg[DM]/ha per mm[EP]
   Yield Productivity                       1.23 kg[grain yield]/m3[EP]   =   12.3 kg[yield]/ha per mm[EP]

 N applied during growing season            161. kg[N applied]/ha
   Dry Matter Productivity                  19.2 kg[DM]/kg[N applied]
   Yield Productivity                        6.2 kg[yield]/kg[N applied]

 N uptake during growing season               53 kg[N uptake]/ha
   Dry Matter Productivity                  58.3 kg[DM]/kg[N uptake]
   Yield Productivity                       18.9 kg[yield]/kg[N uptake]

--------------------------------------------------------------------------------------------------------------

                     Maize YIELD :     1003 kg/ha    [Dry weight] 

**************************************************************************************************************

*DSSAT Cropping System Model Ver. 4.6.1.000 -release      OCT 24, 2017; 10:50:36
                                                                                
*RUN  36        : P12/19                    MZCER046 ANBU2009   36              
 MODEL          : MZCER046 - Maize                                              
 EXPERIMENT     : ANBU2009 MZ  Analisis a침os de bajo rendimiento Buga          
 DATA PATH      : C:\DSSAT46\maize\                                             
 TREATMENT 36   : P12/19                    MZCER046                            
                                                                                
                                                                                
 CROP           : Maize            CULTIVAR : DK234            ECOTYPE :IB0001  
 STARTING DATE  : NOV 19 2009                                                   
 PLANTING DATE  : DEC 19 2009        PLANTS/m2 :  6.2     ROW SPACING :  80.cm  
 WEATHER        : CUNI   2009                                                   
 SOIL           : CCBUGA2017     TEXTURE : CL    -   Suelo Buga MADR Fase I     
 SOIL INITIAL C : DEPTH: 90cm EXTR. H2O: 83.9mm  NO3:  0.0kg/ha  NH4:  0.0kg/ha 
 WATER BALANCE  : RAINFED                                                       
 IRRIGATION     : NOT IRRIGATED                                                 
 NITROGEN BAL.  : SOIL-N & N-UPTAKE SIMULATION; NO N-FIXATION                   
 N-FERTILIZER   :      161 kg/ha IN     5 APPLICATIONS                          
 RESIDUE/MANURE : INITIAL :     0 kg/ha ;       0 kg/ha IN     0 APPLICATIONS   
 ENVIRONM. OPT. : DAYL=    0.00  SRAD=    0.00  TMAX=    0.00  TMIN=    0.00    
                  RAIN=    0.00  CO2 =    0.00  DEW =    0.00  WIND=    0.00    
 SIMULATION OPT : WATER   :Y  NITROGEN:Y  N-FIX:N  PHOSPH :N  PESTS  :N         
                  PHOTO   :C  ET      :R  INFIL:S  HYDROL :R  SOM    :G         
                  CO2 388ppm  NSWIT   :1  EVAP :S  SOIL   :2  STEMP  :D         
 MANAGEMENT OPT : PLANTING:R  IRRIG   :N  FERT :D  RESIDUE:R  HARVEST:M         
                  WEATHER :M  TILLAGE :N                                        
                                                                                
*SUMMARY OF SOIL AND GENETIC INPUT PARAMETERS                                   
                                                                                
   SOIL LOWER UPPER   SAT  EXTR  INIT   ROOT   BULK     pH    NO3    NH4    ORG 
  DEPTH LIMIT LIMIT    SW    SW    SW   DIST   DENS                          C  
   cm   cm3/cm3    cm3/cm3    cm3/cm3         g/cm3         ugN/g  ugN/g     %  
------------------------------------------------------------------------------- 
  0-  5 0.215 0.331 0.341 0.116 0.331   1.00   1.68   6.70   0.00   0.00   0.75 
  5- 15 0.215 0.331 0.341 0.116 0.331   1.00   1.68   6.70   0.00   0.00   0.75 
 15- 25 0.215 0.331 0.341 0.116 0.331   1.00   1.68   6.70   0.00   0.00   0.75 
 25- 35 0.181 0.291 0.364 0.110 0.291   0.50   1.61   7.20   0.00   0.00   0.53 
 35- 45 0.181 0.291 0.364 0.110 0.291   0.50   1.61   7.20   0.00   0.00   0.53 
 45- 67 0.096 0.169 0.404 0.073 0.169   0.27   1.51   7.00   0.00   0.00   0.05 
 67- 90 0.096 0.169 0.404 0.073 0.169   0.27   1.51   7.00   0.00   0.00   0.05 
                                                                                
TOT- 90  13.3  21.7  34.0   8.4  21.7  <--cm   -  kg/ha-->    0.0    0.0  51964 
SOIL ALBEDO    : 0.09      EVAPORATION LIMIT : 6.00         MIN. FACTOR  : 1.00 
RUNOFF CURVE # :76.00      DRAINAGE RATE     : 0.60         FERT. FACTOR : 1.00 
                                                                                
 Maize      CULTIVAR :CI0002-DK234              ECOTYPE :IB0001                 
 P1     : 300.00  P2     : 0.4000  P5     :1075.00                              
 G2     : 890.00  G3     :  7.750  PHINT  : 40.000                              


*SIMULATED CROP AND SOIL STATUS AT MAIN DEVELOPMENT STAGES

 RUN NO.    36     P12/19                  

        CROP GROWTH     BIOMASS         LEAF   CROP N     STRESS      STRESS                                           
   DATE  AGE STAGE        kg/ha    LAI   NUM  kg/ha  %   H2O  Nitr Phos1 Phos2  RSTG                                   
 ------  --- ----------   -----  -----  ----  ---  ---  ----  ----  ----  ----  ----                                   
 19 NOV    0 Start Sim        0   0.00   0.0    0  0.0  0.00  0.00  0.00  0.00     7
 19 DEC    0 Sowing           0   0.00   0.0    0  0.0  0.00  0.00  0.00  0.00     8
 20 DEC    1 Germinate        0   0.00   0.0    0  0.0  0.00  0.00  0.00  0.00     9
 25 DEC    6 Emergence       25   0.00   2.2    1  4.4  0.00  0.01  0.00  0.00     1
 10 JAN   22 End Juveni     300   0.55  10.0    9  3.0  0.00  0.00  0.00  0.00     2
 14 JAN   26 Floral Ini     546   0.86  11.9   11  2.0  0.00  0.30  0.00  0.00     3
 17 FEB   60 75% Silkin    1997   0.63  24.5   47  2.4  0.57  0.59  0.00  0.00     4
 26 FEB   69 Beg Gr Fil    1939   0.44  24.5   47  2.4  0.86  0.00  0.00  0.00     5
 13 APR  115 End Gr Fil    3219   0.21  24.5   47  1.5  0.37  0.00  0.00  0.00     6
 16 APR  118 Maturity      3219   0.21  24.5   47  1.5  0.00  0.00  0.00  0.00    10
 16 APR  118 Harvest       3219   0.21  24.5   47  1.5  0.00  0.00  0.00  0.00    10


*MAIN GROWTH AND DEVELOPMENT VARIABLES

@     VARIABLE                                         SIMULATED     MEASURED
      --------                                         ---------     --------
      Anthesis day (dap)                                      60          -99
      Physiological maturity day (dap)                       118          -99
      Yield at harvest maturity (kg [dm]/ha)                1081          -99
      Number at maturity (no/m2)                             383          -99
      Unit wt at maturity (g [dm]/unit)                   0.2825          -99
      Number at maturity (no/unit)                          74.7          -99
      Tops weight at maturity (kg [dm]/ha)                  3219          -99
      By-product produced (stalk) at maturity (kg[dm]/ha    2172          -99
      Leaf area index, maximum                              1.05          -99
      Harvest index at maturity                            0.336          -99
      Grain N at maturity (kg/ha)                             19          -99
      Tops N at maturity (kg/ha)                              47          -99
      Stem N at maturity (kg/ha)                              24          -99
      Grain N at maturity (%)                                1.8          -99
      Tops weight at anthesis (kg [dm]/ha)                  1987          -99
      Tops N at anthesis (kg/ha)                              47          -99
      Leaf number per stem at maturity                     24.49          -99
      Emergence day (dap)                                      6          -99


*ENVIRONMENTAL AND STRESS FACTORS

 |-----Development Phase------|--------------------------------------Environment--------------------------------------|-----------------Stress-----------------|
                              |---------------Average--------------|-----Cumulative-----|--------Count of days--------|          (0=Min, 1=Max Stress)         |
                         Time  Temp  Temp  Temp Solar Photop                Evapo    Pot TMIN TMIN TMAX TMAX TMAX RAIN|----Water----|---Nitrogen--|-Phosphorus-|
                         Span   Max   Min  Mean   Rad  [day]    CO2   Rain  Trans     ET   <    <    >    >    >    >   Photo         Photo         Photo
                         days    邂    邂    邂 MJ/m2     hr    ppm     mm     mm     mm  0邂  2邂 30邂 32邂 34邂  0mm  synth Growth  synth Growth  synth Growth
----------------------------------------------------------------------------------------------------------------------------------------------------------------
 Emergence-End Juvenile    16  31.6  18.7  25.2  17.4   0.00  388.5   21.9   32.3   77.4    0    0   12    6    0    4  0.000  0.000  0.002  0.005  0.000  0.000
 End Juvenil-Floral Init    4  33.0  19.9  26.4  18.1   0.00  388.5    1.1    8.9   19.5    0    0    4    2    1    1  0.000  0.000  0.079  0.197  0.000  0.000
 Floral Init-End Lf Grow   34  33.3  19.1  26.2  17.9   0.00  388.8   18.8   59.4  162.4    0    0   30   25   13    5  0.419  0.542  0.405  0.606  0.000  0.000
 End Lf Grth-Beg Grn Fil    9  33.2  20.2  26.7  14.7   0.00  389.0    3.4   10.0   36.4    0    0    8    7    2    2  0.792  0.862  0.000  0.000  0.000  0.000
 Grain Filling Phase       46  33.0  20.3  26.6  16.5  11.15  389.1  133.0   79.6  214.4    0    0   41   31   13   17  0.331  0.385  0.000  0.000  0.000  0.000


 Planting to Harvest      118  32.7  19.6  26.2  16.9   4.93  388.9  214.4  219.5  549.3    0    0   99   73   29   32  0.310  0.372  0.120  0.182  0.000  0.000
----------------------------------------------------------------------------------------------------------------------------------------------------------------


*Resource Productivity
 Growing season length: 118 days 

 Precipitation during growing season       214.4 mm[rain]
   Dry Matter Productivity                  1.50 kg[DM]/m3[rain]          =   15.0 kg[DM]/ha per mm[rain]
   Yield Productivity                       0.50 kg[grain yield]/m3[rain] =    5.0 kg[yield]/ha per mm[rain]

 Evapotranspiration during growing season  219.5 mm[ET]
   Dry Matter Productivity                  1.47 kg[DM]/m3[ET]            =   14.7 kg[DM]/ha per mm[ET]
   Yield Productivity                       0.49 kg[grain yield]/m3[ET]   =    4.9 kg[yield]/ha per mm[ET]

 Transpiration during growing season        81.2 mm[EP]
   Dry Matter Productivity                  3.96 kg[DM]/m3[EP]            =   39.6 kg[DM]/ha per mm[EP]
   Yield Productivity                       1.33 kg[grain yield]/m3[EP]   =   13.3 kg[yield]/ha per mm[EP]

 N applied during growing season            161. kg[N applied]/ha
   Dry Matter Productivity                  20.0 kg[DM]/kg[N applied]
   Yield Productivity                        6.7 kg[yield]/kg[N applied]

 N uptake during growing season               53 kg[N uptake]/ha
   Dry Matter Productivity                  60.7 kg[DM]/kg[N uptake]
   Yield Productivity                       20.4 kg[yield]/kg[N uptake]

--------------------------------------------------------------------------------------------------------------

                     Maize YIELD :     1081 kg/ha    [Dry weight] 

**************************************************************************************************************
