*SIMULATION OVERVIEW FILE

*DSSAT Cropping System Model Ver. 4.6.1.000 -release      OCT 24, 2017; 11:05:04
                                                                                
*RUN   1        : P07/14                    MZCER046 ANES2009    1              
 MODEL          : MZCER046 - Maize                                              
 EXPERIMENT     : ANES2009 MZ  MZ Analisis a침os de bajo rendimiento Espinal    
 DATA PATH      : C:\DSSAT46\maize\                                             
 TREATMENT  1   : P07/14                    MZCER046                            
                                                                                
                                                                                
 CROP           : Maize            CULTIVAR : DK7088           ECOTYPE :IB0001  
 STARTING DATE  : JUN 14 2009                                                   
 PLANTING DATE  : JUL 14 2009        PLANTS/m2 :  6.2     ROW SPACING :  80.cm  
 WEATHER        : CNAT   2009                                                   
 SOIL           : CCESPI2017     TEXTURE : SL    -   Suelo Espinal Calibraci    
 SOIL INITIAL C : DEPTH:100cm EXTR. H2O: 83.6mm  NO3:  0.0kg/ha  NH4:  0.0kg/ha 
 WATER BALANCE  : RAINFED                                                       
 IRRIGATION     : NOT IRRIGATED                                                 
 NITROGEN BAL.  : SOIL-N & N-UPTAKE SIMULATION; NO N-FIXATION                   
 N-FERTILIZER   :      162 kg/ha IN     6 APPLICATIONS                          
 RESIDUE/MANURE : INITIAL :     0 kg/ha ;       0 kg/ha IN     0 APPLICATIONS   
 ENVIRONM. OPT. : DAYL=    0.00  SRAD=    0.00  TMAX=    0.00  TMIN=    0.00    
                  RAIN=    0.00  CO2 =    0.00  DEW =    0.00  WIND=    0.00    
 SIMULATION OPT : WATER   :Y  NITROGEN:Y  N-FIX:N  PHOSPH :N  PESTS  :N         
                  PHOTO   :C  ET      :R  INFIL:S  HYDROL :R  SOM    :G         
                  CO2 387ppm  NSWIT   :1  EVAP :S  SOIL   :2  STEMP  :D         
 MANAGEMENT OPT : PLANTING:R  IRRIG   :N  FERT :D  RESIDUE:R  HARVEST:M         
                  WEATHER :M  TILLAGE :N                                        
                                                                                
*SUMMARY OF SOIL AND GENETIC INPUT PARAMETERS                                   
                                                                                
   SOIL LOWER UPPER   SAT  EXTR  INIT   ROOT   BULK     pH    NO3    NH4    ORG 
  DEPTH LIMIT LIMIT    SW    SW    SW   DIST   DENS                          C  
   cm   cm3/cm3    cm3/cm3    cm3/cm3         g/cm3         ugN/g  ugN/g     %  
------------------------------------------------------------------------------- 
  0-  5 0.160 0.252 0.376 0.092 0.252   1.00   1.69   6.60   0.00   0.00   0.45 
  5- 15 0.160 0.252 0.376 0.092 0.252   1.00   1.69   6.60   0.00   0.00   0.45 
 15- 30 0.160 0.252 0.376 0.092 0.252   1.00   1.69   6.60   0.00   0.00   0.45 
 30- 53 0.120 0.200 0.440 0.080 0.200   0.27   1.40   7.10   0.00   0.00   0.17 
 53- 77 0.120 0.200 0.440 0.080 0.200   0.27   1.40   7.10   0.00   0.00   0.17 
 77-100 0.120 0.200 0.440 0.080 0.200   0.27   1.40   7.10   0.00   0.00   0.17 
                                                                                
TOT-100  13.2  21.6  42.1   8.4  21.6  <--cm   -  kg/ha-->    0.0    0.0  39475 
SOIL ALBEDO    : 0.09      EVAPORATION LIMIT : 6.00         MIN. FACTOR  : 1.00 
RUNOFF CURVE # :76.00      DRAINAGE RATE     : 0.60         FERT. FACTOR : 1.00 
                                                                                
 Maize      CULTIVAR :CI0004-DK7088             ECOTYPE :IB0001                 
 P1     : 229.00  P2     : 0.3000  P5     : 971.00                              
 G2     : 957.00  G3     :  7.500  PHINT  : 45.000                              


*SIMULATED CROP AND SOIL STATUS AT MAIN DEVELOPMENT STAGES

 RUN NO.     1     P07/14                  

        CROP GROWTH     BIOMASS         LEAF   CROP N     STRESS      STRESS                                           
   DATE  AGE STAGE        kg/ha    LAI   NUM  kg/ha  %   H2O  Nitr Phos1 Phos2  RSTG                                   
 ------  --- ----------   -----  -----  ----  ---  ---  ----  ----  ----  ----  ----                                   
 14 JUN    0 Start Sim        0   0.00   0.0    0  0.0  0.00  0.00  0.00  0.00     7
 14 JUL    0 Sowing           0   0.00   0.0    0  0.0  0.00  0.00  0.00  0.00     8
 15 JUL    1 Germinate        0   0.00   0.0    0  0.0  0.00  0.00  0.00  0.00     9
 19 JUL    5 Emergence       25   0.00   2.2    1  4.4  0.00  0.01  0.00  0.00     1
 30 JUL   16 End Juveni     135   0.28   7.9    4  3.2  0.05  0.00  0.00  0.00     2
  6 AUG   23 Floral Ini     364   0.59  11.3    6  1.7  0.25  0.36  0.00  0.00     3
  7 SEP   55 75% Silkin    2763   1.11  23.3   59  2.1  0.55  0.23  0.00  0.00     4
 15 SEP   63 Beg Gr Fil    2827   0.81  23.3   60  2.1  0.79  0.00  0.00  0.00     5
 22 OCT  100 End Gr Fil    3975   0.56  23.3   60  1.5  0.30  0.00  0.00  0.00     6
 25 OCT  103 Maturity      3975   0.56  23.3   60  1.5  0.26  0.00  0.00  0.00    10
 25 OCT  103 Harvest       3975   0.56  23.3   60  1.5  0.00  0.00  0.00  0.00    10


*MAIN GROWTH AND DEVELOPMENT VARIABLES

@     VARIABLE                                         SIMULATED     MEASURED
      --------                                         ---------     --------
      Anthesis day (dap)                                      55          -99
      Physiological maturity day (dap)                       103          -99
      Yield at harvest maturity (kg [dm]/ha)                1053          -99
      Number at maturity (no/m2)                             542          -99
      Unit wt at maturity (g [dm]/unit)                   0.1943          -99
      Number at maturity (no/unit)                          98.8          -99
      Tops weight at maturity (kg [dm]/ha)                  3975          -99
      By-product produced (stalk) at maturity (kg[dm]/ha    2956          -99
      Leaf area index, maximum                              1.30          -99
      Harvest index at maturity                            0.265          -99
      Grain N at maturity (kg/ha)                             19          -99
      Tops N at maturity (kg/ha)                              60          -99
      Stem N at maturity (kg/ha)                              38          -99
      Grain N at maturity (%)                                1.8          -99
      Tops weight at anthesis (kg [dm]/ha)                  2723          -99
      Tops N at anthesis (kg/ha)                              59          -99
      Leaf number per stem at maturity                     23.30          -99
      Emergence day (dap)                                      5          -99


*ENVIRONMENTAL AND STRESS FACTORS

 |-----Development Phase------|--------------------------------------Environment--------------------------------------|-----------------Stress-----------------|
                              |---------------Average--------------|-----Cumulative-----|--------Count of days--------|          (0=Min, 1=Max Stress)         |
                         Time  Temp  Temp  Temp Solar Photop                Evapo    Pot TMIN TMIN TMAX TMAX TMAX RAIN|----Water----|---Nitrogen--|-Phosphorus-|
                         Span   Max   Min  Mean   Rad  [day]    CO2   Rain  Trans     ET   <    <    >    >    >    >   Photo         Photo         Photo
                         days    邂    邂    邂 MJ/m2     hr    ppm     mm     mm     mm  0邂  2邂 30邂 32邂 34邂  0mm  synth Growth  synth Growth  synth Growth
----------------------------------------------------------------------------------------------------------------------------------------------------------------
 Emergence-End Juvenile    11  34.3  21.6  27.9  18.9  24.00  387.5    0.0    4.8   60.2    0    0   11   10    7    0  0.000  0.025  0.002  0.005  0.000  0.000
 End Juvenil-Floral Init    7  35.6  22.2  28.9  21.7  24.00  387.5    0.0   10.5   44.3    0    0    7    7    7    0  0.043  0.292  0.113  0.267  0.000  0.000
 Floral Init-End Lf Grow   32  34.3  22.0  28.2  19.6  22.80  387.6   48.0   65.6  174.3    0    0   31   27   20    7  0.390  0.529  0.168  0.254  0.000  0.000
 End Lf Grth-Beg Grn Fil    8  36.3  22.6  29.5  21.3  15.63  387.7   46.0    9.1   50.8    0    0    8    8    7    2  0.829  0.887  0.000  0.000  0.000  0.000
 Grain Filling Phase       37  35.1  22.2  28.6  20.6   6.90  387.9  100.5  107.9  220.5    0    0   37   33   25    6  0.195  0.274  0.000  0.000  0.000  0.000


 Planting to Harvest      103  34.8  22.0  28.4  20.2  16.14  387.7  215.8  205.7  594.2    0    0  101   92   70   18  0.272  0.370  0.060  0.098  0.000  0.000
----------------------------------------------------------------------------------------------------------------------------------------------------------------


*Resource Productivity
 Growing season length: 103 days 

 Precipitation during growing season       215.8 mm[rain]
   Dry Matter Productivity                  1.84 kg[DM]/m3[rain]          =   18.4 kg[DM]/ha per mm[rain]
   Yield Productivity                       0.49 kg[grain yield]/m3[rain] =    4.9 kg[yield]/ha per mm[rain]

 Evapotranspiration during growing season  205.7 mm[ET]
   Dry Matter Productivity                  1.93 kg[DM]/m3[ET]            =   19.3 kg[DM]/ha per mm[ET]
   Yield Productivity                       0.51 kg[grain yield]/m3[ET]   =    5.1 kg[yield]/ha per mm[ET]

 Transpiration during growing season       137.6 mm[EP]
   Dry Matter Productivity                  2.89 kg[DM]/m3[EP]            =   28.9 kg[DM]/ha per mm[EP]
   Yield Productivity                       0.77 kg[grain yield]/m3[EP]   =    7.7 kg[yield]/ha per mm[EP]

 N applied during growing season            162. kg[N applied]/ha
   Dry Matter Productivity                  24.5 kg[DM]/kg[N applied]
   Yield Productivity                        6.5 kg[yield]/kg[N applied]

 N uptake during growing season               64 kg[N uptake]/ha
   Dry Matter Productivity                  62.1 kg[DM]/kg[N uptake]
   Yield Productivity                       16.5 kg[yield]/kg[N uptake]

--------------------------------------------------------------------------------------------------------------

                     Maize YIELD :     1053 kg/ha    [Dry weight] 

**************************************************************************************************************

*DSSAT Cropping System Model Ver. 4.6.1.000 -release      OCT 24, 2017; 11:05:04
                                                                                
*RUN   2        : P07/19                    MZCER046 ANES2009    2              
 MODEL          : MZCER046 - Maize                                              
 EXPERIMENT     : ANES2009 MZ  MZ Analisis a침os de bajo rendimiento Espinal    
 DATA PATH      : C:\DSSAT46\maize\                                             
 TREATMENT  2   : P07/19                    MZCER046                            
                                                                                
                                                                                
 CROP           : Maize            CULTIVAR : DK7088           ECOTYPE :IB0001  
 STARTING DATE  : JUN 19 2009                                                   
 PLANTING DATE  : JUL 19 2009        PLANTS/m2 :  6.2     ROW SPACING :  80.cm  
 WEATHER        : CNAT   2009                                                   
 SOIL           : CCESPI2017     TEXTURE : SL    -   Suelo Espinal Calibraci    
 SOIL INITIAL C : DEPTH:100cm EXTR. H2O: 83.6mm  NO3:  0.0kg/ha  NH4:  0.0kg/ha 
 WATER BALANCE  : RAINFED                                                       
 IRRIGATION     : NOT IRRIGATED                                                 
 NITROGEN BAL.  : SOIL-N & N-UPTAKE SIMULATION; NO N-FIXATION                   
 N-FERTILIZER   :      162 kg/ha IN     6 APPLICATIONS                          
 RESIDUE/MANURE : INITIAL :     0 kg/ha ;       0 kg/ha IN     0 APPLICATIONS   
 ENVIRONM. OPT. : DAYL=    0.00  SRAD=    0.00  TMAX=    0.00  TMIN=    0.00    
                  RAIN=    0.00  CO2 =    0.00  DEW =    0.00  WIND=    0.00    
 SIMULATION OPT : WATER   :Y  NITROGEN:Y  N-FIX:N  PHOSPH :N  PESTS  :N         
                  PHOTO   :C  ET      :R  INFIL:S  HYDROL :R  SOM    :G         
                  CO2 387ppm  NSWIT   :1  EVAP :S  SOIL   :2  STEMP  :D         
 MANAGEMENT OPT : PLANTING:R  IRRIG   :N  FERT :D  RESIDUE:R  HARVEST:M         
                  WEATHER :M  TILLAGE :N                                        
                                                                                
*SUMMARY OF SOIL AND GENETIC INPUT PARAMETERS                                   
                                                                                
   SOIL LOWER UPPER   SAT  EXTR  INIT   ROOT   BULK     pH    NO3    NH4    ORG 
  DEPTH LIMIT LIMIT    SW    SW    SW   DIST   DENS                          C  
   cm   cm3/cm3    cm3/cm3    cm3/cm3         g/cm3         ugN/g  ugN/g     %  
------------------------------------------------------------------------------- 
  0-  5 0.160 0.252 0.376 0.092 0.252   1.00   1.69   6.60   0.00   0.00   0.45 
  5- 15 0.160 0.252 0.376 0.092 0.252   1.00   1.69   6.60   0.00   0.00   0.45 
 15- 30 0.160 0.252 0.376 0.092 0.252   1.00   1.69   6.60   0.00   0.00   0.45 
 30- 53 0.120 0.200 0.440 0.080 0.200   0.27   1.40   7.10   0.00   0.00   0.17 
 53- 77 0.120 0.200 0.440 0.080 0.200   0.27   1.40   7.10   0.00   0.00   0.17 
 77-100 0.120 0.200 0.440 0.080 0.200   0.27   1.40   7.10   0.00   0.00   0.17 
                                                                                
TOT-100  13.2  21.6  42.1   8.4  21.6  <--cm   -  kg/ha-->    0.0    0.0  39475 
SOIL ALBEDO    : 0.09      EVAPORATION LIMIT : 6.00         MIN. FACTOR  : 1.00 
RUNOFF CURVE # :76.00      DRAINAGE RATE     : 0.60         FERT. FACTOR : 1.00 
                                                                                
 Maize      CULTIVAR :CI0004-DK7088             ECOTYPE :IB0001                 
 P1     : 229.00  P2     : 0.3000  P5     : 971.00                              
 G2     : 957.00  G3     :  7.500  PHINT  : 45.000                              


*SIMULATED CROP AND SOIL STATUS AT MAIN DEVELOPMENT STAGES

 RUN NO.     2     P07/19                  

        CROP GROWTH     BIOMASS         LEAF   CROP N     STRESS      STRESS                                           
   DATE  AGE STAGE        kg/ha    LAI   NUM  kg/ha  %   H2O  Nitr Phos1 Phos2  RSTG                                   
 ------  --- ----------   -----  -----  ----  ---  ---  ----  ----  ----  ----  ----                                   
 19 JUN    0 Start Sim        0   0.00   0.0    0  0.0  0.00  0.00  0.00  0.00     7
 19 JUL    0 Sowing           0   0.00   0.0    0  0.0  0.00  0.00  0.00  0.00     8
 20 JUL    1 Germinate        0   0.00   0.0    0  0.0  0.00  0.00  0.00  0.00     9
 24 JUL    5 Emergence       25   0.00   2.2    1  4.4  0.00  0.01  0.00  0.00     1
  4 AUG   16 End Juveni     152   0.31   8.1    5  3.1  0.06  0.00  0.00  0.00     2
 11 AUG   23 Floral Ini     380   0.60  11.3    6  1.6  0.28  0.41  0.00  0.00     3
 12 SEP   55 75% Silkin    2846   1.13  23.4   67  2.4  0.60  0.11  0.00  0.00     4
 21 SEP   64 Beg Gr Fil    3835   1.02  23.4   67  1.8  0.21  0.00  0.00  0.00     5
 27 OCT  100 End Gr Fil    6135   0.54  23.4   73  1.2  0.46  0.00  0.00  0.00     6
 30 OCT  103 Maturity      6135   0.54  23.4   73  1.2  0.43  0.00  0.00  0.00    10
 30 OCT  103 Harvest       6135   0.54  23.4   73  1.2  0.00  0.00  0.00  0.00    10


*MAIN GROWTH AND DEVELOPMENT VARIABLES

@     VARIABLE                                         SIMULATED     MEASURED
      --------                                         ---------     --------
      Anthesis day (dap)                                      55          -99
      Physiological maturity day (dap)                       103          -99
      Yield at harvest maturity (kg [dm]/ha)                2661          -99
      Number at maturity (no/m2)                            1560          -99
      Unit wt at maturity (g [dm]/unit)                   0.1705          -99
      Number at maturity (no/unit)                         251.7          -99
      Tops weight at maturity (kg [dm]/ha)                  6135          -99
      By-product produced (stalk) at maturity (kg[dm]/ha    3512          -99
      Leaf area index, maximum                              1.52          -99
      Harvest index at maturity                            0.434          -99
      Grain N at maturity (kg/ha)                             48          -99
      Tops N at maturity (kg/ha)                              73          -99
      Stem N at maturity (kg/ha)                              25          -99
      Grain N at maturity (%)                                1.8          -99
      Tops weight at anthesis (kg [dm]/ha)                  2840          -99
      Tops N at anthesis (kg/ha)                              67          -99
      Leaf number per stem at maturity                     23.37          -99
      Emergence day (dap)                                      5          -99


*ENVIRONMENTAL AND STRESS FACTORS

 |-----Development Phase------|--------------------------------------Environment--------------------------------------|-----------------Stress-----------------|
                              |---------------Average--------------|-----Cumulative-----|--------Count of days--------|          (0=Min, 1=Max Stress)         |
                         Time  Temp  Temp  Temp Solar Photop                Evapo    Pot TMIN TMIN TMAX TMAX TMAX RAIN|----Water----|---Nitrogen--|-Phosphorus-|
                         Span   Max   Min  Mean   Rad  [day]    CO2   Rain  Trans     ET   <    <    >    >    >    >   Photo         Photo         Photo
                         days    邂    邂    邂 MJ/m2     hr    ppm     mm     mm     mm  0邂  2邂 30邂 32邂 34邂  0mm  synth Growth  synth Growth  synth Growth
----------------------------------------------------------------------------------------------------------------------------------------------------------------
 Emergence-End Juvenile    11  35.3  21.6  28.5  20.6  24.00  387.5    0.0    5.6   67.0    0    0   11   11   11    0  0.000  0.046  0.002  0.005  0.000  0.000
 End Juvenil-Floral Init    7  34.1  22.5  28.3  16.8  24.00  387.5    0.0    8.2   33.3    0    0    7    5    5    0  0.093  0.267  0.144  0.320  0.000  0.000
 Floral Init-End Lf Grow   32  34.7  22.1  28.4  20.3  21.58  387.6   50.5   69.3  181.4    0    0   31   29   21    8  0.441  0.578  0.084  0.132  0.000  0.000
 End Lf Grth-Beg Grn Fil    9  35.0  22.0  28.5  20.3  13.64  387.8  129.5   33.8   51.9    0    0    9    8    5    3  0.297  0.309  0.000  0.000  0.000  0.000
 Grain Filling Phase       36  35.0  22.3  28.6  20.5   4.91  387.9   35.8   87.5  211.8    0    0   35   31   25    7  0.351  0.456  0.000  0.000  0.000  0.000


 Planting to Harvest      103  34.8  22.1  28.5  20.2  14.97  387.7  218.0  212.6  591.6    0    0  101   91   71   19  0.297  0.395  0.036  0.063  0.000  0.000
----------------------------------------------------------------------------------------------------------------------------------------------------------------


*Resource Productivity
 Growing season length: 103 days 

 Precipitation during growing season       218.0 mm[rain]
   Dry Matter Productivity                  2.81 kg[DM]/m3[rain]          =   28.1 kg[DM]/ha per mm[rain]
   Yield Productivity                       1.22 kg[grain yield]/m3[rain] =   12.2 kg[yield]/ha per mm[rain]

 Evapotranspiration during growing season  212.6 mm[ET]
   Dry Matter Productivity                  2.89 kg[DM]/m3[ET]            =   28.9 kg[DM]/ha per mm[ET]
   Yield Productivity                       1.25 kg[grain yield]/m3[ET]   =   12.5 kg[yield]/ha per mm[ET]

 Transpiration during growing season       143.5 mm[EP]
   Dry Matter Productivity                  4.28 kg[DM]/m3[EP]            =   42.8 kg[DM]/ha per mm[EP]
   Yield Productivity                       1.85 kg[grain yield]/m3[EP]   =   18.5 kg[yield]/ha per mm[EP]

 N applied during growing season            162. kg[N applied]/ha
   Dry Matter Productivity                  37.9 kg[DM]/kg[N applied]
   Yield Productivity                       16.4 kg[yield]/kg[N applied]

 N uptake during growing season               83 kg[N uptake]/ha
   Dry Matter Productivity                  73.9 kg[DM]/kg[N uptake]
   Yield Productivity                       32.1 kg[yield]/kg[N uptake]

--------------------------------------------------------------------------------------------------------------

                     Maize YIELD :     2661 kg/ha    [Dry weight] 

**************************************************************************************************************

*DSSAT Cropping System Model Ver. 4.6.1.000 -release      OCT 24, 2017; 11:05:04
                                                                                
*RUN   3        : P07/24                    MZCER046 ANES2009    3              
 MODEL          : MZCER046 - Maize                                              
 EXPERIMENT     : ANES2009 MZ  MZ Analisis a침os de bajo rendimiento Espinal    
 DATA PATH      : C:\DSSAT46\maize\                                             
 TREATMENT  3   : P07/24                    MZCER046                            
                                                                                
                                                                                
 CROP           : Maize            CULTIVAR : DK7088           ECOTYPE :IB0001  
 STARTING DATE  : JUN 24 2009                                                   
 PLANTING DATE  : JUL 24 2009        PLANTS/m2 :  6.2     ROW SPACING :  80.cm  
 WEATHER        : CNAT   2009                                                   
 SOIL           : CCESPI2017     TEXTURE : SL    -   Suelo Espinal Calibraci    
 SOIL INITIAL C : DEPTH:100cm EXTR. H2O: 83.6mm  NO3:  0.0kg/ha  NH4:  0.0kg/ha 
 WATER BALANCE  : RAINFED                                                       
 IRRIGATION     : NOT IRRIGATED                                                 
 NITROGEN BAL.  : SOIL-N & N-UPTAKE SIMULATION; NO N-FIXATION                   
 N-FERTILIZER   :      162 kg/ha IN     6 APPLICATIONS                          
 RESIDUE/MANURE : INITIAL :     0 kg/ha ;       0 kg/ha IN     0 APPLICATIONS   
 ENVIRONM. OPT. : DAYL=    0.00  SRAD=    0.00  TMAX=    0.00  TMIN=    0.00    
                  RAIN=    0.00  CO2 =    0.00  DEW =    0.00  WIND=    0.00    
 SIMULATION OPT : WATER   :Y  NITROGEN:Y  N-FIX:N  PHOSPH :N  PESTS  :N         
                  PHOTO   :C  ET      :R  INFIL:S  HYDROL :R  SOM    :G         
                  CO2 387ppm  NSWIT   :1  EVAP :S  SOIL   :2  STEMP  :D         
 MANAGEMENT OPT : PLANTING:R  IRRIG   :N  FERT :D  RESIDUE:R  HARVEST:M         
                  WEATHER :M  TILLAGE :N                                        
                                                                                
*SUMMARY OF SOIL AND GENETIC INPUT PARAMETERS                                   
                                                                                
   SOIL LOWER UPPER   SAT  EXTR  INIT   ROOT   BULK     pH    NO3    NH4    ORG 
  DEPTH LIMIT LIMIT    SW    SW    SW   DIST   DENS                          C  
   cm   cm3/cm3    cm3/cm3    cm3/cm3         g/cm3         ugN/g  ugN/g     %  
------------------------------------------------------------------------------- 
  0-  5 0.160 0.252 0.376 0.092 0.252   1.00   1.69   6.60   0.00   0.00   0.45 
  5- 15 0.160 0.252 0.376 0.092 0.252   1.00   1.69   6.60   0.00   0.00   0.45 
 15- 30 0.160 0.252 0.376 0.092 0.252   1.00   1.69   6.60   0.00   0.00   0.45 
 30- 53 0.120 0.200 0.440 0.080 0.200   0.27   1.40   7.10   0.00   0.00   0.17 
 53- 77 0.120 0.200 0.440 0.080 0.200   0.27   1.40   7.10   0.00   0.00   0.17 
 77-100 0.120 0.200 0.440 0.080 0.200   0.27   1.40   7.10   0.00   0.00   0.17 
                                                                                
TOT-100  13.2  21.6  42.1   8.4  21.6  <--cm   -  kg/ha-->    0.0    0.0  39475 
SOIL ALBEDO    : 0.09      EVAPORATION LIMIT : 6.00         MIN. FACTOR  : 1.00 
RUNOFF CURVE # :76.00      DRAINAGE RATE     : 0.60         FERT. FACTOR : 1.00 
                                                                                
 Maize      CULTIVAR :CI0004-DK7088             ECOTYPE :IB0001                 
 P1     : 229.00  P2     : 0.3000  P5     : 971.00                              
 G2     : 957.00  G3     :  7.500  PHINT  : 45.000                              


*SIMULATED CROP AND SOIL STATUS AT MAIN DEVELOPMENT STAGES

 RUN NO.     3     P07/24                  

        CROP GROWTH     BIOMASS         LEAF   CROP N     STRESS      STRESS                                           
   DATE  AGE STAGE        kg/ha    LAI   NUM  kg/ha  %   H2O  Nitr Phos1 Phos2  RSTG                                   
 ------  --- ----------   -----  -----  ----  ---  ---  ----  ----  ----  ----  ----                                   
 24 JUN    0 Start Sim        0   0.00   0.0    0  0.0  0.00  0.00  0.00  0.00     7
 24 JUL    0 Sowing           0   0.00   0.0    0  0.0  0.00  0.00  0.00  0.00     8
 25 JUL    1 Germinate        0   0.00   0.0    0  0.0  0.00  0.00  0.00  0.00     9
 29 JUL    5 Emergence       25   0.00   2.2    1  4.4  0.00  0.01  0.00  0.00     1
  9 AUG   16 End Juveni     162   0.33   8.0    5  3.1  0.00  0.00  0.00  0.00     2
 16 AUG   23 Floral Ini     403   0.63  11.4   15  3.8  0.25  0.41  0.00  0.00     3
 18 SEP   56 75% Silkin    3768   1.52  23.5   77  2.0  0.51  0.00  0.00  0.00     4
 26 SEP   64 Beg Gr Fil    5463   1.49  23.5   77  1.4  0.12  0.00  0.00  0.00     5
  2 NOV  101 End Gr Fil    7966   0.53  23.5   89  1.1  0.66  0.00  0.00  0.00     6
  5 NOV  104 Maturity      7966   0.53  23.5   89  1.1  0.69  0.00  0.00  0.00    10
  5 NOV  104 Harvest       7966   0.53  23.5   89  1.1  0.00  0.00  0.00  0.00    10


*MAIN GROWTH AND DEVELOPMENT VARIABLES

@     VARIABLE                                         SIMULATED     MEASURED
      --------                                         ---------     --------
      Anthesis day (dap)                                      56          -99
      Physiological maturity day (dap)                       104          -99
      Yield at harvest maturity (kg [dm]/ha)                3334          -99
      Number at maturity (no/m2)                            2869          -99
      Unit wt at maturity (g [dm]/unit)                   0.1162          -99
      Number at maturity (no/unit)                         462.8          -99
      Tops weight at maturity (kg [dm]/ha)                  7966          -99
      By-product produced (stalk) at maturity (kg[dm]/ha    4677          -99
      Leaf area index, maximum                              1.78          -99
      Harvest index at maturity                            0.419          -99
      Grain N at maturity (kg/ha)                             61          -99
      Tops N at maturity (kg/ha)                              89          -99
      Stem N at maturity (kg/ha)                              28          -99
      Grain N at maturity (%)                                1.8          -99
      Tops weight at anthesis (kg [dm]/ha)                  3509          -99
      Tops N at anthesis (kg/ha)                              74          -99
      Leaf number per stem at maturity                     23.51          -99
      Emergence day (dap)                                      5          -99


*ENVIRONMENTAL AND STRESS FACTORS

 |-----Development Phase------|--------------------------------------Environment--------------------------------------|-----------------Stress-----------------|
                              |---------------Average--------------|-----Cumulative-----|--------Count of days--------|          (0=Min, 1=Max Stress)         |
                         Time  Temp  Temp  Temp Solar Photop                Evapo    Pot TMIN TMIN TMAX TMAX TMAX RAIN|----Water----|---Nitrogen--|-Phosphorus-|
                         Span   Max   Min  Mean   Rad  [day]    CO2   Rain  Trans     ET   <    <    >    >    >    >   Photo         Photo         Photo
                         days    邂    邂    邂 MJ/m2     hr    ppm     mm     mm     mm  0邂  2邂 30邂 32邂 34邂  0mm  synth Growth  synth Growth  synth Growth
----------------------------------------------------------------------------------------------------------------------------------------------------------------
 Emergence-End Juvenile    11  34.7  22.4  28.5  18.8  24.00  387.5    0.0    4.6   61.3    0    0   11    9    9    0  0.000  0.000  0.002  0.005  0.000  0.000
 End Juvenil-Floral Init    7  35.5  21.7  28.6  21.2  24.00  387.5    0.7   11.4   43.1    0    0    7    7    7    1  0.064  0.254  0.141  0.315  0.000  0.000
 Floral Init-End Lf Grow   33  34.7  22.1  28.4  20.1  19.86  387.7  179.3   86.7  183.4    0    0   32   29   20   10  0.411  0.505  0.011  0.020  0.000  0.000
 End Lf Grth-Beg Grn Fil    8  35.0  22.3  28.7  21.9  11.74  387.9    4.6   40.6   47.8    0    0    8    8    5    1  0.000  0.052  0.000  0.000  0.000  0.000
 Grain Filling Phase       37  34.7  22.3  28.5  19.9   3.26  388.0   34.3   64.2  209.0    0    0   36   30   24    9  0.558  0.655  0.000  0.000  0.000  0.000


 Planting to Harvest      104  34.7  22.1  28.4  20.0  13.67  387.8  221.8  212.3  587.0    0    0  102   90   70   24  0.350  0.435  0.013  0.028  0.000  0.000
----------------------------------------------------------------------------------------------------------------------------------------------------------------


*Resource Productivity
 Growing season length: 104 days 

 Precipitation during growing season       221.8 mm[rain]
   Dry Matter Productivity                  3.59 kg[DM]/m3[rain]          =   35.9 kg[DM]/ha per mm[rain]
   Yield Productivity                       1.50 kg[grain yield]/m3[rain] =   15.0 kg[yield]/ha per mm[rain]

 Evapotranspiration during growing season  212.3 mm[ET]
   Dry Matter Productivity                  3.75 kg[DM]/m3[ET]            =   37.5 kg[DM]/ha per mm[ET]
   Yield Productivity                       1.57 kg[grain yield]/m3[ET]   =   15.7 kg[yield]/ha per mm[ET]

 Transpiration during growing season       143.0 mm[EP]
   Dry Matter Productivity                  5.57 kg[DM]/m3[EP]            =   55.7 kg[DM]/ha per mm[EP]
   Yield Productivity                       2.33 kg[grain yield]/m3[EP]   =   23.3 kg[yield]/ha per mm[EP]

 N applied during growing season            162. kg[N applied]/ha
   Dry Matter Productivity                  49.2 kg[DM]/kg[N applied]
   Yield Productivity                       20.6 kg[yield]/kg[N applied]

 N uptake during growing season               97 kg[N uptake]/ha
   Dry Matter Productivity                  82.1 kg[DM]/kg[N uptake]
   Yield Productivity                       34.4 kg[yield]/kg[N uptake]

--------------------------------------------------------------------------------------------------------------

                     Maize YIELD :     3334 kg/ha    [Dry weight] 

**************************************************************************************************************

*DSSAT Cropping System Model Ver. 4.6.1.000 -release      OCT 24, 2017; 11:05:04
                                                                                
*RUN   4        : P07/29                    MZCER046 ANES2009    4              
 MODEL          : MZCER046 - Maize                                              
 EXPERIMENT     : ANES2009 MZ  MZ Analisis a침os de bajo rendimiento Espinal    
 DATA PATH      : C:\DSSAT46\maize\                                             
 TREATMENT  4   : P07/29                    MZCER046                            
                                                                                
                                                                                
 CROP           : Maize            CULTIVAR : DK7088           ECOTYPE :IB0001  
 STARTING DATE  : JUN 29 2009                                                   
 PLANTING DATE  : JUL 29 2009        PLANTS/m2 :  6.2     ROW SPACING :  80.cm  
 WEATHER        : CNAT   2009                                                   
 SOIL           : CCESPI2017     TEXTURE : SL    -   Suelo Espinal Calibraci    
 SOIL INITIAL C : DEPTH:100cm EXTR. H2O: 83.6mm  NO3:  0.0kg/ha  NH4:  0.0kg/ha 
 WATER BALANCE  : RAINFED                                                       
 IRRIGATION     : NOT IRRIGATED                                                 
 NITROGEN BAL.  : SOIL-N & N-UPTAKE SIMULATION; NO N-FIXATION                   
 N-FERTILIZER   :      162 kg/ha IN     6 APPLICATIONS                          
 RESIDUE/MANURE : INITIAL :     0 kg/ha ;       0 kg/ha IN     0 APPLICATIONS   
 ENVIRONM. OPT. : DAYL=    0.00  SRAD=    0.00  TMAX=    0.00  TMIN=    0.00    
                  RAIN=    0.00  CO2 =    0.00  DEW =    0.00  WIND=    0.00    
 SIMULATION OPT : WATER   :Y  NITROGEN:Y  N-FIX:N  PHOSPH :N  PESTS  :N         
                  PHOTO   :C  ET      :R  INFIL:S  HYDROL :R  SOM    :G         
                  CO2 387ppm  NSWIT   :1  EVAP :S  SOIL   :2  STEMP  :D         
 MANAGEMENT OPT : PLANTING:R  IRRIG   :N  FERT :D  RESIDUE:R  HARVEST:M         
                  WEATHER :M  TILLAGE :N                                        
                                                                                
*SUMMARY OF SOIL AND GENETIC INPUT PARAMETERS                                   
                                                                                
   SOIL LOWER UPPER   SAT  EXTR  INIT   ROOT   BULK     pH    NO3    NH4    ORG 
  DEPTH LIMIT LIMIT    SW    SW    SW   DIST   DENS                          C  
   cm   cm3/cm3    cm3/cm3    cm3/cm3         g/cm3         ugN/g  ugN/g     %  
------------------------------------------------------------------------------- 
  0-  5 0.160 0.252 0.376 0.092 0.252   1.00   1.69   6.60   0.00   0.00   0.45 
  5- 15 0.160 0.252 0.376 0.092 0.252   1.00   1.69   6.60   0.00   0.00   0.45 
 15- 30 0.160 0.252 0.376 0.092 0.252   1.00   1.69   6.60   0.00   0.00   0.45 
 30- 53 0.120 0.200 0.440 0.080 0.200   0.27   1.40   7.10   0.00   0.00   0.17 
 53- 77 0.120 0.200 0.440 0.080 0.200   0.27   1.40   7.10   0.00   0.00   0.17 
 77-100 0.120 0.200 0.440 0.080 0.200   0.27   1.40   7.10   0.00   0.00   0.17 
                                                                                
TOT-100  13.2  21.6  42.1   8.4  21.6  <--cm   -  kg/ha-->    0.0    0.0  39475 
SOIL ALBEDO    : 0.09      EVAPORATION LIMIT : 6.00         MIN. FACTOR  : 1.00 
RUNOFF CURVE # :76.00      DRAINAGE RATE     : 0.60         FERT. FACTOR : 1.00 
                                                                                
 Maize      CULTIVAR :CI0004-DK7088             ECOTYPE :IB0001                 
 P1     : 229.00  P2     : 0.3000  P5     : 971.00                              
 G2     : 957.00  G3     :  7.500  PHINT  : 45.000                              


*SIMULATED CROP AND SOIL STATUS AT MAIN DEVELOPMENT STAGES

 RUN NO.     4     P07/29                  

        CROP GROWTH     BIOMASS         LEAF   CROP N     STRESS      STRESS                                           
   DATE  AGE STAGE        kg/ha    LAI   NUM  kg/ha  %   H2O  Nitr Phos1 Phos2  RSTG                                   
 ------  --- ----------   -----  -----  ----  ---  ---  ----  ----  ----  ----  ----                                   
 29 JUN    0 Start Sim        0   0.00   0.0    0  0.0  0.00  0.00  0.00  0.00     7
 29 JUL    0 Sowing           0   0.00   0.0    0  0.0  0.00  0.00  0.00  0.00     8
 30 JUL    1 Germinate        0   0.00   0.0    0  0.0  0.00  0.00  0.00  0.00     9
  3 AUG    5 Emergence       25   0.00   2.2    1  4.4  0.00  0.01  0.00  0.00     1
 14 AUG   16 End Juveni     156   0.32   8.0    5  3.0  0.04  0.00  0.00  0.00     2
 21 AUG   23 Floral Ini     443   0.73  11.3   16  3.6  0.27  0.03  0.00  0.00     3
 22 SEP   55 75% Silkin    4373   1.91  23.4   88  2.0  0.41  0.00  0.00  0.00     4
  1 OCT   64 Beg Gr Fil    5602   1.55  23.4   92  1.6  0.62  0.00  0.00  0.00     5
  7 NOV  101 End Gr Fil    7739   0.52  23.4   95  1.2  0.69  0.00  0.00  0.00     6
  9 NOV  103 Maturity      7739   0.52  23.4   95  1.2  0.88  0.00  0.00  0.00    10
  9 NOV  103 Harvest       7739   0.52  23.4   95  1.2  0.00  0.00  0.00  0.00    10


*MAIN GROWTH AND DEVELOPMENT VARIABLES

@     VARIABLE                                         SIMULATED     MEASURED
      --------                                         ---------     --------
      Anthesis day (dap)                                      55          -99
      Physiological maturity day (dap)                       103          -99
      Yield at harvest maturity (kg [dm]/ha)                3311          -99
      Number at maturity (no/m2)                            2131          -99
      Unit wt at maturity (g [dm]/unit)                   0.1554          -99
      Number at maturity (no/unit)                         343.7          -99
      Tops weight at maturity (kg [dm]/ha)                  7739          -99
      By-product produced (stalk) at maturity (kg[dm]/ha    4476          -99
      Leaf area index, maximum                              1.91          -99
      Harvest index at maturity                            0.428          -99
      Grain N at maturity (kg/ha)                             61          -99
      Tops N at maturity (kg/ha)                              95          -99
      Stem N at maturity (kg/ha)                              34          -99
      Grain N at maturity (%)                                1.8          -99
      Tops weight at anthesis (kg [dm]/ha)                  4163          -99
      Tops N at anthesis (kg/ha)                              88          -99
      Leaf number per stem at maturity                     23.37          -99
      Emergence day (dap)                                      5          -99


*ENVIRONMENTAL AND STRESS FACTORS

 |-----Development Phase------|--------------------------------------Environment--------------------------------------|-----------------Stress-----------------|
                              |---------------Average--------------|-----Cumulative-----|--------Count of days--------|          (0=Min, 1=Max Stress)         |
                         Time  Temp  Temp  Temp Solar Photop                Evapo    Pot TMIN TMIN TMAX TMAX TMAX RAIN|----Water----|---Nitrogen--|-Phosphorus-|
                         Span   Max   Min  Mean   Rad  [day]    CO2   Rain  Trans     ET   <    <    >    >    >    >   Photo         Photo         Photo
                         days    邂    邂    邂 MJ/m2     hr    ppm     mm     mm     mm  0邂  2邂 30邂 32邂 34邂  0mm  synth Growth  synth Growth  synth Growth
----------------------------------------------------------------------------------------------------------------------------------------------------------------
 Emergence-End Juvenile    11  34.8  22.1  28.5  18.3  24.00  387.5    0.7    4.9   59.7    0    0   11    9    9    1  0.000  0.043  0.002  0.004  0.000  0.000
 End Juvenil-Floral Init    7  33.8  23.3  28.5  18.4  24.00  387.6   10.0   12.1   36.8    0    0    7    6    3    2  0.123  0.218  0.012  0.031  0.000  0.000
 Floral Init-End Lf Grow   32  34.9  21.9  28.4  20.8  18.28  387.7  173.9  101.8  183.2    0    0   31   29   21    9  0.341  0.424  0.000  0.000  0.000  0.000
 End Lf Grth-Beg Grn Fil    9  36.0  22.1  29.1  22.2  10.19  387.9    0.0   30.2   56.2    0    0    9    9    8    0  0.367  0.530  0.000  0.000  0.000  0.000
 Grain Filling Phase       37  34.2  22.3  28.2  19.0   1.98  388.0   37.8   56.5  196.7    0    0   36   29   19   13  0.604  0.691  0.000  0.000  0.000  0.000


 Planting to Harvest      103  34.6  22.2  28.4  19.8  12.64  387.8  222.4  208.1  575.1    0    0  101   89   65   25  0.380  0.463  0.001  0.003  0.000  0.000
----------------------------------------------------------------------------------------------------------------------------------------------------------------


*Resource Productivity
 Growing season length: 103 days 

 Precipitation during growing season       222.4 mm[rain]
   Dry Matter Productivity                  3.48 kg[DM]/m3[rain]          =   34.8 kg[DM]/ha per mm[rain]
   Yield Productivity                       1.49 kg[grain yield]/m3[rain] =   14.9 kg[yield]/ha per mm[rain]

 Evapotranspiration during growing season  208.1 mm[ET]
   Dry Matter Productivity                  3.72 kg[DM]/m3[ET]            =   37.2 kg[DM]/ha per mm[ET]
   Yield Productivity                       1.59 kg[grain yield]/m3[ET]   =   15.9 kg[yield]/ha per mm[ET]

 Transpiration during growing season       137.7 mm[EP]
   Dry Matter Productivity                  5.62 kg[DM]/m3[EP]            =   56.2 kg[DM]/ha per mm[EP]
   Yield Productivity                       2.40 kg[grain yield]/m3[EP]   =   24.0 kg[yield]/ha per mm[EP]

 N applied during growing season            162. kg[N applied]/ha
   Dry Matter Productivity                  47.8 kg[DM]/kg[N applied]
   Yield Productivity                       20.4 kg[yield]/kg[N applied]

 N uptake during growing season              103 kg[N uptake]/ha
   Dry Matter Productivity                  75.1 kg[DM]/kg[N uptake]
   Yield Productivity                       32.1 kg[yield]/kg[N uptake]

--------------------------------------------------------------------------------------------------------------

                     Maize YIELD :     3311 kg/ha    [Dry weight] 

**************************************************************************************************************

*DSSAT Cropping System Model Ver. 4.6.1.000 -release      OCT 24, 2017; 11:05:04
                                                                                
*RUN   5        : P08/03                    MZCER046 ANES2009    5              
 MODEL          : MZCER046 - Maize                                              
 EXPERIMENT     : ANES2009 MZ  MZ Analisis a침os de bajo rendimiento Espinal    
 DATA PATH      : C:\DSSAT46\maize\                                             
 TREATMENT  5   : P08/03                    MZCER046                            
                                                                                
                                                                                
 CROP           : Maize            CULTIVAR : DK7088           ECOTYPE :IB0001  
 STARTING DATE  : JUL  4 2009                                                   
 PLANTING DATE  : AUG  3 2009        PLANTS/m2 :  6.2     ROW SPACING :  80.cm  
 WEATHER        : CNAT   2009                                                   
 SOIL           : CCESPI2017     TEXTURE : SL    -   Suelo Espinal Calibraci    
 SOIL INITIAL C : DEPTH:100cm EXTR. H2O: 83.6mm  NO3:  0.0kg/ha  NH4:  0.0kg/ha 
 WATER BALANCE  : RAINFED                                                       
 IRRIGATION     : NOT IRRIGATED                                                 
 NITROGEN BAL.  : SOIL-N & N-UPTAKE SIMULATION; NO N-FIXATION                   
 N-FERTILIZER   :      162 kg/ha IN     6 APPLICATIONS                          
 RESIDUE/MANURE : INITIAL :     0 kg/ha ;       0 kg/ha IN     0 APPLICATIONS   
 ENVIRONM. OPT. : DAYL=    0.00  SRAD=    0.00  TMAX=    0.00  TMIN=    0.00    
                  RAIN=    0.00  CO2 =    0.00  DEW =    0.00  WIND=    0.00    
 SIMULATION OPT : WATER   :Y  NITROGEN:Y  N-FIX:N  PHOSPH :N  PESTS  :N         
                  PHOTO   :C  ET      :R  INFIL:S  HYDROL :R  SOM    :G         
                  CO2 387ppm  NSWIT   :1  EVAP :S  SOIL   :2  STEMP  :D         
 MANAGEMENT OPT : PLANTING:R  IRRIG   :N  FERT :D  RESIDUE:R  HARVEST:M         
                  WEATHER :M  TILLAGE :N                                        
                                                                                
*SUMMARY OF SOIL AND GENETIC INPUT PARAMETERS                                   
                                                                                
   SOIL LOWER UPPER   SAT  EXTR  INIT   ROOT   BULK     pH    NO3    NH4    ORG 
  DEPTH LIMIT LIMIT    SW    SW    SW   DIST   DENS                          C  
   cm   cm3/cm3    cm3/cm3    cm3/cm3         g/cm3         ugN/g  ugN/g     %  
------------------------------------------------------------------------------- 
  0-  5 0.160 0.252 0.376 0.092 0.252   1.00   1.69   6.60   0.00   0.00   0.45 
  5- 15 0.160 0.252 0.376 0.092 0.252   1.00   1.69   6.60   0.00   0.00   0.45 
 15- 30 0.160 0.252 0.376 0.092 0.252   1.00   1.69   6.60   0.00   0.00   0.45 
 30- 53 0.120 0.200 0.440 0.080 0.200   0.27   1.40   7.10   0.00   0.00   0.17 
 53- 77 0.120 0.200 0.440 0.080 0.200   0.27   1.40   7.10   0.00   0.00   0.17 
 77-100 0.120 0.200 0.440 0.080 0.200   0.27   1.40   7.10   0.00   0.00   0.17 
                                                                                
TOT-100  13.2  21.6  42.1   8.4  21.6  <--cm   -  kg/ha-->    0.0    0.0  39475 
SOIL ALBEDO    : 0.09      EVAPORATION LIMIT : 6.00         MIN. FACTOR  : 1.00 
RUNOFF CURVE # :76.00      DRAINAGE RATE     : 0.60         FERT. FACTOR : 1.00 
                                                                                
 Maize      CULTIVAR :CI0004-DK7088             ECOTYPE :IB0001                 
 P1     : 229.00  P2     : 0.3000  P5     : 971.00                              
 G2     : 957.00  G3     :  7.500  PHINT  : 45.000                              


*SIMULATED CROP AND SOIL STATUS AT MAIN DEVELOPMENT STAGES

 RUN NO.     5     P08/03                  

        CROP GROWTH     BIOMASS         LEAF   CROP N     STRESS      STRESS                                           
   DATE  AGE STAGE        kg/ha    LAI   NUM  kg/ha  %   H2O  Nitr Phos1 Phos2  RSTG                                   
 ------  --- ----------   -----  -----  ----  ---  ---  ----  ----  ----  ----  ----                                   
  4 JUL    0 Start Sim        0   0.00   0.0    0  0.0  0.00  0.00  0.00  0.00     7
  3 AUG    0 Sowing           0   0.00   0.0    0  0.0  0.00  0.00  0.00  0.00     8
  4 AUG    1 Germinate        0   0.00   0.0    0  0.0  0.00  0.00  0.00  0.00     9
  8 AUG    5 Emergence       25   0.00   2.1    1  4.4  0.00  0.01  0.00  0.00     1
 19 AUG   16 End Juveni     142   0.29   8.0    5  3.5  0.04  0.00  0.00  0.00     2
 25 AUG   22 Floral Ini     412   0.71  10.7   15  3.6  0.16  0.00  0.00  0.00     3
 25 SEP   53 75% Silkin    3906   1.66  22.0   78  2.0  0.44  0.00  0.00  0.00     4
  3 OCT   61 Beg Gr Fil    4625   1.34  22.0   80  1.7  0.69  0.00  0.00  0.00     5
 10 NOV   99 End Gr Fil    6685   0.45  22.0   82  1.2  0.68  0.00  0.00  0.00     6
 12 NOV  101 Maturity      6685   0.45  22.0   82  1.2  0.00  0.00  0.00  0.00    10
 12 NOV  101 Harvest       6685   0.45  22.0   82  1.2  0.00  0.00  0.00  0.00    10


*MAIN GROWTH AND DEVELOPMENT VARIABLES

@     VARIABLE                                         SIMULATED     MEASURED
      --------                                         ---------     --------
      Anthesis day (dap)                                      53          -99
      Physiological maturity day (dap)                       101          -99
      Yield at harvest maturity (kg [dm]/ha)                2685          -99
      Number at maturity (no/m2)                            1643          -99
      Unit wt at maturity (g [dm]/unit)                   0.1634          -99
      Number at maturity (no/unit)                         265.1          -99
      Tops weight at maturity (kg [dm]/ha)                  6685          -99
      By-product produced (stalk) at maturity (kg[dm]/ha    4040          -99
      Leaf area index, maximum                              1.69          -99
      Harvest index at maturity                            0.402          -99
      Grain N at maturity (kg/ha)                             49          -99
      Tops N at maturity (kg/ha)                              82          -99
      Stem N at maturity (kg/ha)                              33          -99
      Grain N at maturity (%)                                1.8          -99
      Tops weight at anthesis (kg [dm]/ha)                  3728          -99
      Tops N at anthesis (kg/ha)                              78          -99
      Leaf number per stem at maturity                     22.02          -99
      Emergence day (dap)                                      5          -99


*ENVIRONMENTAL AND STRESS FACTORS

 |-----Development Phase------|--------------------------------------Environment--------------------------------------|-----------------Stress-----------------|
                              |---------------Average--------------|-----Cumulative-----|--------Count of days--------|          (0=Min, 1=Max Stress)         |
                         Time  Temp  Temp  Temp Solar Photop                Evapo    Pot TMIN TMIN TMAX TMAX TMAX RAIN|----Water----|---Nitrogen--|-Phosphorus-|
                         Span   Max   Min  Mean   Rad  [day]    CO2   Rain  Trans     ET   <    <    >    >    >    >   Photo         Photo         Photo
                         days    邂    邂    邂 MJ/m2     hr    ppm     mm     mm     mm  0邂  2邂 30邂 32邂 34邂  0mm  synth Growth  synth Growth  synth Growth
----------------------------------------------------------------------------------------------------------------------------------------------------------------
 Emergence-End Juvenile    11  34.3  22.4  28.3  18.7  24.00  387.5    9.7    6.5   61.3    0    0   11    9    7    2  0.000  0.013  0.002  0.006  0.000  0.000
 End Juvenil-Floral Init    6  33.9  22.1  28.0  18.9  24.00  387.7   25.0   14.5   32.2    0    0    6    6    3    3  0.095  0.221  0.001  0.002  0.000  0.000
 Floral Init-End Lf Grow   31  35.0  22.0  28.5  21.2  16.86  387.7  149.9   96.2  183.9    0    0   30   28   21    7  0.364  0.425  0.000  0.000  0.000  0.000
 End Lf Grth-Beg Grn Fil    8  36.7  22.0  29.3  22.4   9.30  387.9    0.0   20.4   52.2    0    0    8    8    8    0  0.495  0.664  0.000  0.000  0.000  0.000
 Grain Filling Phase       38  34.0  22.4  28.2  18.8   1.49  388.0   40.6   58.9  199.0    0    0   37   30   18   14  0.581  0.677  0.000  0.000  0.000  0.000


 Planting to Harvest      101  34.6  22.2  28.4  19.8  11.70  387.8  237.0  204.5  565.6    0    0   99   87   62   28  0.382  0.460  0.000  0.001  0.000  0.000
----------------------------------------------------------------------------------------------------------------------------------------------------------------


*Resource Productivity
 Growing season length: 101 days 

 Precipitation during growing season       237.0 mm[rain]
   Dry Matter Productivity                  2.82 kg[DM]/m3[rain]          =   28.2 kg[DM]/ha per mm[rain]
   Yield Productivity                       1.13 kg[grain yield]/m3[rain] =   11.3 kg[yield]/ha per mm[rain]

 Evapotranspiration during growing season  204.5 mm[ET]
   Dry Matter Productivity                  3.27 kg[DM]/m3[ET]            =   32.7 kg[DM]/ha per mm[ET]
   Yield Productivity                       1.31 kg[grain yield]/m3[ET]   =   13.1 kg[yield]/ha per mm[ET]

 Transpiration during growing season       124.3 mm[EP]
   Dry Matter Productivity                  5.38 kg[DM]/m3[EP]            =   53.8 kg[DM]/ha per mm[EP]
   Yield Productivity                       2.16 kg[grain yield]/m3[EP]   =   21.6 kg[yield]/ha per mm[EP]

 N applied during growing season            162. kg[N applied]/ha
   Dry Matter Productivity                  41.3 kg[DM]/kg[N applied]
   Yield Productivity                       16.6 kg[yield]/kg[N applied]

 N uptake during growing season               89 kg[N uptake]/ha
   Dry Matter Productivity                  75.1 kg[DM]/kg[N uptake]
   Yield Productivity                       30.2 kg[yield]/kg[N uptake]

--------------------------------------------------------------------------------------------------------------

                     Maize YIELD :     2685 kg/ha    [Dry weight] 

**************************************************************************************************************

*DSSAT Cropping System Model Ver. 4.6.1.000 -release      OCT 24, 2017; 11:05:04
                                                                                
*RUN   6        : P08/08                    MZCER046 ANES2009    6              
 MODEL          : MZCER046 - Maize                                              
 EXPERIMENT     : ANES2009 MZ  MZ Analisis a침os de bajo rendimiento Espinal    
 DATA PATH      : C:\DSSAT46\maize\                                             
 TREATMENT  6   : P08/08                    MZCER046                            
                                                                                
                                                                                
 CROP           : Maize            CULTIVAR : DK7088           ECOTYPE :IB0001  
 STARTING DATE  : JUL  9 2009                                                   
 PLANTING DATE  : AUG  8 2009        PLANTS/m2 :  6.2     ROW SPACING :  80.cm  
 WEATHER        : CNAT   2009                                                   
 SOIL           : CCESPI2017     TEXTURE : SL    -   Suelo Espinal Calibraci    
 SOIL INITIAL C : DEPTH:100cm EXTR. H2O: 83.6mm  NO3:  0.0kg/ha  NH4:  0.0kg/ha 
 WATER BALANCE  : RAINFED                                                       
 IRRIGATION     : NOT IRRIGATED                                                 
 NITROGEN BAL.  : SOIL-N & N-UPTAKE SIMULATION; NO N-FIXATION                   
 N-FERTILIZER   :      162 kg/ha IN     6 APPLICATIONS                          
 RESIDUE/MANURE : INITIAL :     0 kg/ha ;       0 kg/ha IN     0 APPLICATIONS   
 ENVIRONM. OPT. : DAYL=    0.00  SRAD=    0.00  TMAX=    0.00  TMIN=    0.00    
                  RAIN=    0.00  CO2 =    0.00  DEW =    0.00  WIND=    0.00    
 SIMULATION OPT : WATER   :Y  NITROGEN:Y  N-FIX:N  PHOSPH :N  PESTS  :N         
                  PHOTO   :C  ET      :R  INFIL:S  HYDROL :R  SOM    :G         
                  CO2 387ppm  NSWIT   :1  EVAP :S  SOIL   :2  STEMP  :D         
 MANAGEMENT OPT : PLANTING:R  IRRIG   :N  FERT :D  RESIDUE:R  HARVEST:M         
                  WEATHER :M  TILLAGE :N                                        
                                                                                
*SUMMARY OF SOIL AND GENETIC INPUT PARAMETERS                                   
                                                                                
   SOIL LOWER UPPER   SAT  EXTR  INIT   ROOT   BULK     pH    NO3    NH4    ORG 
  DEPTH LIMIT LIMIT    SW    SW    SW   DIST   DENS                          C  
   cm   cm3/cm3    cm3/cm3    cm3/cm3         g/cm3         ugN/g  ugN/g     %  
------------------------------------------------------------------------------- 
  0-  5 0.160 0.252 0.376 0.092 0.252   1.00   1.69   6.60   0.00   0.00   0.45 
  5- 15 0.160 0.252 0.376 0.092 0.252   1.00   1.69   6.60   0.00   0.00   0.45 
 15- 30 0.160 0.252 0.376 0.092 0.252   1.00   1.69   6.60   0.00   0.00   0.45 
 30- 53 0.120 0.200 0.440 0.080 0.200   0.27   1.40   7.10   0.00   0.00   0.17 
 53- 77 0.120 0.200 0.440 0.080 0.200   0.27   1.40   7.10   0.00   0.00   0.17 
 77-100 0.120 0.200 0.440 0.080 0.200   0.27   1.40   7.10   0.00   0.00   0.17 
                                                                                
TOT-100  13.2  21.6  42.1   8.4  21.6  <--cm   -  kg/ha-->    0.0    0.0  39475 
SOIL ALBEDO    : 0.09      EVAPORATION LIMIT : 6.00         MIN. FACTOR  : 1.00 
RUNOFF CURVE # :76.00      DRAINAGE RATE     : 0.60         FERT. FACTOR : 1.00 
                                                                                
 Maize      CULTIVAR :CI0004-DK7088             ECOTYPE :IB0001                 
 P1     : 229.00  P2     : 0.3000  P5     : 971.00                              
 G2     : 957.00  G3     :  7.500  PHINT  : 45.000                              


*SIMULATED CROP AND SOIL STATUS AT MAIN DEVELOPMENT STAGES

 RUN NO.     6     P08/08                  

        CROP GROWTH     BIOMASS         LEAF   CROP N     STRESS      STRESS                                           
   DATE  AGE STAGE        kg/ha    LAI   NUM  kg/ha  %   H2O  Nitr Phos1 Phos2  RSTG                                   
 ------  --- ----------   -----  -----  ----  ---  ---  ----  ----  ----  ----  ----                                   
  9 JUL    0 Start Sim        0   0.00   0.0    0  0.0  0.00  0.00  0.00  0.00     7
  8 AUG    0 Sowing           0   0.00   0.0    0  0.0  0.00  0.00  0.00  0.00     8
  9 AUG    1 Germinate        0   0.00   0.0    0  0.0  0.00  0.00  0.00  0.00     9
 13 AUG    5 Emergence       25   0.00   2.3    1  4.4  0.00  0.01  0.00  0.00     1
 24 AUG   16 End Juveni     136   0.28   8.0    4  3.2  0.10  0.00  0.00  0.00     2
 29 AUG   21 Floral Ini     398   0.69  10.2   15  3.7  0.00  0.00  0.00  0.00     3
 27 SEP   50 75% Silkin    3686   1.61  21.2   75  2.0  0.44  0.00  0.00  0.00     4
  6 OCT   59 Beg Gr Fil    4482   1.28  21.2   77  1.7  0.67  0.00  0.00  0.00     5
 12 NOV   96 End Gr Fil    6414   0.44  21.2   78  1.2  0.65  0.00  0.00  0.00     6
 15 NOV   99 Maturity      6414   0.44  21.2   78  1.2  0.04  0.00  0.00  0.00    10
 15 NOV   99 Harvest       6414   0.44  21.2   78  1.2  0.00  0.00  0.00  0.00    10


*MAIN GROWTH AND DEVELOPMENT VARIABLES

@     VARIABLE                                         SIMULATED     MEASURED
      --------                                         ---------     --------
      Anthesis day (dap)                                      50          -99
      Physiological maturity day (dap)                        99          -99
      Yield at harvest maturity (kg [dm]/ha)                2575          -99
      Number at maturity (no/m2)                            1596          -99
      Unit wt at maturity (g [dm]/unit)                   0.1613          -99
      Number at maturity (no/unit)                         257.5          -99
      Tops weight at maturity (kg [dm]/ha)                  6414          -99
      By-product produced (stalk) at maturity (kg[dm]/ha    3877          -99
      Leaf area index, maximum                              1.64          -99
      Harvest index at maturity                            0.402          -99
      Grain N at maturity (kg/ha)                             47          -99
      Tops N at maturity (kg/ha)                              78          -99
      Stem N at maturity (kg/ha)                              31          -99
      Grain N at maturity (%)                                1.8          -99
      Tops weight at anthesis (kg [dm]/ha)                  3502          -99
      Tops N at anthesis (kg/ha)                              73          -99
      Leaf number per stem at maturity                     21.17          -99
      Emergence day (dap)                                      5          -99


*ENVIRONMENTAL AND STRESS FACTORS

 |-----Development Phase------|--------------------------------------Environment--------------------------------------|-----------------Stress-----------------|
                              |---------------Average--------------|-----Cumulative-----|--------Count of days--------|          (0=Min, 1=Max Stress)         |
                         Time  Temp  Temp  Temp Solar Photop                Evapo    Pot TMIN TMIN TMAX TMAX TMAX RAIN|----Water----|---Nitrogen--|-Phosphorus-|
                         Span   Max   Min  Mean   Rad  [day]    CO2   Rain  Trans     ET   <    <    >    >    >    >   Photo         Photo         Photo
                         days    邂    邂    邂 MJ/m2     hr    ppm     mm     mm     mm  0邂  2邂 30邂 32邂 34邂  0mm  synth Growth  synth Growth  synth Growth
----------------------------------------------------------------------------------------------------------------------------------------------------------------
 Emergence-End Juvenile    11  34.1  22.9  28.5  18.6  24.00  387.6   34.7   14.4   60.8    0    0   11   10    6    5  0.015  0.097  0.002  0.004  0.000  0.000
 End Juvenil-Floral Init    5  33.2  20.9  27.1  20.6  24.00  387.7    0.0   14.1   29.0    0    0    4    4    2    0  0.000  0.000  0.001  0.003  0.000  0.000
 Floral Init-End Lf Grow   29  35.4  22.1  28.7  21.4  15.43  387.7  149.9   90.7  176.2    0    0   29   27   21    7  0.353  0.425  0.000  0.000  0.000  0.000
 End Lf Grth-Beg Grn Fil    9  36.1  22.6  29.4  20.8   8.37  387.9    0.4   21.6   53.7    0    0    9    9    8    1  0.463  0.640  0.000  0.000  0.000  0.000
 Grain Filling Phase       37  33.9  22.2  28.1  18.9   0.95  388.0   52.0   60.4  195.1    0    0   36   29   17   15  0.589  0.673  0.000  0.000  0.000  0.000


 Planting to Harvest       99  34.5  22.2  28.3  19.7  10.73  387.8  237.0  207.7  555.6    0    0   96   85   58   28  0.367  0.445  0.000  0.001  0.000  0.000
----------------------------------------------------------------------------------------------------------------------------------------------------------------


*Resource Productivity
 Growing season length:  99 days 

 Precipitation during growing season       237.0 mm[rain]
   Dry Matter Productivity                  2.71 kg[DM]/m3[rain]          =   27.1 kg[DM]/ha per mm[rain]
   Yield Productivity                       1.09 kg[grain yield]/m3[rain] =   10.9 kg[yield]/ha per mm[rain]

 Evapotranspiration during growing season  207.7 mm[ET]
   Dry Matter Productivity                  3.09 kg[DM]/m3[ET]            =   30.9 kg[DM]/ha per mm[ET]
   Yield Productivity                       1.24 kg[grain yield]/m3[ET]   =   12.4 kg[yield]/ha per mm[ET]

 Transpiration during growing season       120.7 mm[EP]
   Dry Matter Productivity                  5.31 kg[DM]/m3[EP]            =   53.1 kg[DM]/ha per mm[EP]
   Yield Productivity                       2.13 kg[grain yield]/m3[EP]   =   21.3 kg[yield]/ha per mm[EP]

 N applied during growing season            162. kg[N applied]/ha
   Dry Matter Productivity                  39.6 kg[DM]/kg[N applied]
   Yield Productivity                       15.9 kg[yield]/kg[N applied]

 N uptake during growing season               85 kg[N uptake]/ha
   Dry Matter Productivity                  75.5 kg[DM]/kg[N uptake]
   Yield Productivity                       30.3 kg[yield]/kg[N uptake]

--------------------------------------------------------------------------------------------------------------

                     Maize YIELD :     2575 kg/ha    [Dry weight] 

**************************************************************************************************************

*DSSAT Cropping System Model Ver. 4.6.1.000 -release      OCT 24, 2017; 11:05:05
                                                                                
*RUN   7        : P08/13                    MZCER046 ANES2009    7              
 MODEL          : MZCER046 - Maize                                              
 EXPERIMENT     : ANES2009 MZ  MZ Analisis a침os de bajo rendimiento Espinal    
 DATA PATH      : C:\DSSAT46\maize\                                             
 TREATMENT  7   : P08/13                    MZCER046                            
                                                                                
                                                                                
 CROP           : Maize            CULTIVAR : DK7088           ECOTYPE :IB0001  
 STARTING DATE  : JUL 14 2009                                                   
 PLANTING DATE  : AUG 13 2009        PLANTS/m2 :  6.2     ROW SPACING :  80.cm  
 WEATHER        : CNAT   2009                                                   
 SOIL           : CCESPI2017     TEXTURE : SL    -   Suelo Espinal Calibraci    
 SOIL INITIAL C : DEPTH:100cm EXTR. H2O: 83.6mm  NO3:  0.0kg/ha  NH4:  0.0kg/ha 
 WATER BALANCE  : RAINFED                                                       
 IRRIGATION     : NOT IRRIGATED                                                 
 NITROGEN BAL.  : SOIL-N & N-UPTAKE SIMULATION; NO N-FIXATION                   
 N-FERTILIZER   :      162 kg/ha IN     6 APPLICATIONS                          
 RESIDUE/MANURE : INITIAL :     0 kg/ha ;       0 kg/ha IN     0 APPLICATIONS   
 ENVIRONM. OPT. : DAYL=    0.00  SRAD=    0.00  TMAX=    0.00  TMIN=    0.00    
                  RAIN=    0.00  CO2 =    0.00  DEW =    0.00  WIND=    0.00    
 SIMULATION OPT : WATER   :Y  NITROGEN:Y  N-FIX:N  PHOSPH :N  PESTS  :N         
                  PHOTO   :C  ET      :R  INFIL:S  HYDROL :R  SOM    :G         
                  CO2 387ppm  NSWIT   :1  EVAP :S  SOIL   :2  STEMP  :D         
 MANAGEMENT OPT : PLANTING:R  IRRIG   :N  FERT :D  RESIDUE:R  HARVEST:M         
                  WEATHER :M  TILLAGE :N                                        
                                                                                
*SUMMARY OF SOIL AND GENETIC INPUT PARAMETERS                                   
                                                                                
   SOIL LOWER UPPER   SAT  EXTR  INIT   ROOT   BULK     pH    NO3    NH4    ORG 
  DEPTH LIMIT LIMIT    SW    SW    SW   DIST   DENS                          C  
   cm   cm3/cm3    cm3/cm3    cm3/cm3         g/cm3         ugN/g  ugN/g     %  
------------------------------------------------------------------------------- 
  0-  5 0.160 0.252 0.376 0.092 0.252   1.00   1.69   6.60   0.00   0.00   0.45 
  5- 15 0.160 0.252 0.376 0.092 0.252   1.00   1.69   6.60   0.00   0.00   0.45 
 15- 30 0.160 0.252 0.376 0.092 0.252   1.00   1.69   6.60   0.00   0.00   0.45 
 30- 53 0.120 0.200 0.440 0.080 0.200   0.27   1.40   7.10   0.00   0.00   0.17 
 53- 77 0.120 0.200 0.440 0.080 0.200   0.27   1.40   7.10   0.00   0.00   0.17 
 77-100 0.120 0.200 0.440 0.080 0.200   0.27   1.40   7.10   0.00   0.00   0.17 
                                                                                
TOT-100  13.2  21.6  42.1   8.4  21.6  <--cm   -  kg/ha-->    0.0    0.0  39475 
SOIL ALBEDO    : 0.09      EVAPORATION LIMIT : 6.00         MIN. FACTOR  : 1.00 
RUNOFF CURVE # :76.00      DRAINAGE RATE     : 0.60         FERT. FACTOR : 1.00 
                                                                                
 Maize      CULTIVAR :CI0004-DK7088             ECOTYPE :IB0001                 
 P1     : 229.00  P2     : 0.3000  P5     : 971.00                              
 G2     : 957.00  G3     :  7.500  PHINT  : 45.000                              


*SIMULATED CROP AND SOIL STATUS AT MAIN DEVELOPMENT STAGES

 RUN NO.     7     P08/13                  

        CROP GROWTH     BIOMASS         LEAF   CROP N     STRESS      STRESS                                           
   DATE  AGE STAGE        kg/ha    LAI   NUM  kg/ha  %   H2O  Nitr Phos1 Phos2  RSTG                                   
 ------  --- ----------   -----  -----  ----  ---  ---  ----  ----  ----  ----  ----                                   
 14 JUL    0 Start Sim        0   0.00   0.0    0  0.0  0.00  0.00  0.00  0.00     7
 13 AUG    0 Sowing           0   0.00   0.0    0  0.0  0.00  0.00  0.00  0.00     8
 14 AUG    1 Germinate        0   0.00   0.0    0  0.0  0.00  0.00  0.00  0.00     9
 18 AUG    5 Emergence       25   0.00   2.2    1  4.4  0.00  0.01  0.00  0.00     1
 29 AUG   16 End Juveni     145   0.30   7.8    5  3.2  0.00  0.00  0.00  0.00     2
  3 SEP   21 Floral Ini     340   0.59  10.3   13  3.8  0.25  0.00  0.00  0.00     3
  2 OCT   50 75% Silkin    3741   1.73  21.2   79  2.1  0.46  0.00  0.00  0.00     4
 11 OCT   59 Beg Gr Fil    4365   1.32  21.2   79  1.8  0.73  0.00  0.00  0.00     5
 18 NOV   97 End Gr Fil    6335   0.47  21.2   79  1.2  0.63  0.00  0.00  0.00     6
 20 NOV   99 Maturity      6335   0.47  21.2   79  1.2  0.87  0.00  0.00  0.00    10
 20 NOV   99 Harvest       6335   0.47  21.2   79  1.2  0.00  0.00  0.00  0.00    10


*MAIN GROWTH AND DEVELOPMENT VARIABLES

@     VARIABLE                                         SIMULATED     MEASURED
      --------                                         ---------     --------
      Anthesis day (dap)                                      50          -99
      Physiological maturity day (dap)                        99          -99
      Yield at harvest maturity (kg [dm]/ha)                2411          -99
      Number at maturity (no/m2)                            1364          -99
      Unit wt at maturity (g [dm]/unit)                   0.1768          -99
      Number at maturity (no/unit)                         220.0          -99
      Tops weight at maturity (kg [dm]/ha)                  6335          -99
      By-product produced (stalk) at maturity (kg[dm]/ha    3964          -99
      Leaf area index, maximum                              1.81          -99
      Harvest index at maturity                            0.381          -99
      Grain N at maturity (kg/ha)                             44          -99
      Tops N at maturity (kg/ha)                              79          -99
      Stem N at maturity (kg/ha)                              35          -99
      Grain N at maturity (%)                                1.8          -99
      Tops weight at anthesis (kg [dm]/ha)                  3606          -99
      Tops N at anthesis (kg/ha)                              78          -99
      Leaf number per stem at maturity                     21.23          -99
      Emergence day (dap)                                      5          -99


*ENVIRONMENTAL AND STRESS FACTORS

 |-----Development Phase------|--------------------------------------Environment--------------------------------------|-----------------Stress-----------------|
                              |---------------Average--------------|-----Cumulative-----|--------Count of days--------|          (0=Min, 1=Max Stress)         |
                         Time  Temp  Temp  Temp Solar Photop                Evapo    Pot TMIN TMIN TMAX TMAX TMAX RAIN|----Water----|---Nitrogen--|-Phosphorus-|
                         Span   Max   Min  Mean   Rad  [day]    CO2   Rain  Trans     ET   <    <    >    >    >    >   Photo         Photo         Photo
                         days    邂    邂    邂 MJ/m2     hr    ppm     mm     mm     mm  0邂  2邂 30邂 32邂 34邂  0mm  synth Growth  synth Growth  synth Growth
----------------------------------------------------------------------------------------------------------------------------------------------------------------
 Emergence-End Juvenile    11  33.7  21.8  27.7  19.5  24.00  387.7   25.0   25.0   62.9    0    0   10   10    5    3  0.000  0.002  0.002  0.005  0.000  0.000
 End Juvenil-Floral Init    5  35.2  22.2  28.7  21.4  20.99  387.7    0.8   10.1   31.4    0    0    5    5    4    1  0.010  0.128  0.001  0.002  0.000  0.000
 Floral Init-End Lf Grow   29  35.6  22.0  28.8  21.4  13.39  387.8  149.1   92.9  178.3    0    0   29   27   22    6  0.358  0.463  0.000  0.000  0.000  0.000
 End Lf Grth-Beg Grn Fil    9  36.3  22.7  29.5  20.9   6.28  387.9    0.4   17.4   54.1    0    0    9    9    8    1  0.572  0.715  0.000  0.000  0.000  0.000
 Grain Filling Phase       38  33.3  22.3  27.8  18.0   0.22  388.1   52.9   64.3  187.2    0    0   36   28   13   17  0.553  0.631  0.000  0.000  0.000  0.000


 Planting to Harvest       99  34.4  22.3  28.3  19.6   9.51  387.9  237.9  213.9  552.2    0    0   96   85   55   30  0.385  0.467  0.000  0.001  0.000  0.000
----------------------------------------------------------------------------------------------------------------------------------------------------------------


*Resource Productivity
 Growing season length:  99 days 

 Precipitation during growing season       237.9 mm[rain]
   Dry Matter Productivity                  2.66 kg[DM]/m3[rain]          =   26.6 kg[DM]/ha per mm[rain]
   Yield Productivity                       1.01 kg[grain yield]/m3[rain] =   10.1 kg[yield]/ha per mm[rain]

 Evapotranspiration during growing season  213.9 mm[ET]
   Dry Matter Productivity                  2.96 kg[DM]/m3[ET]            =   29.6 kg[DM]/ha per mm[ET]
   Yield Productivity                       1.13 kg[grain yield]/m3[ET]   =   11.3 kg[yield]/ha per mm[ET]

 Transpiration during growing season       119.1 mm[EP]
   Dry Matter Productivity                  5.32 kg[DM]/m3[EP]            =   53.2 kg[DM]/ha per mm[EP]
   Yield Productivity                       2.02 kg[grain yield]/m3[EP]   =   20.2 kg[yield]/ha per mm[EP]

 N applied during growing season            162. kg[N applied]/ha
   Dry Matter Productivity                  39.1 kg[DM]/kg[N applied]
   Yield Productivity                       14.9 kg[yield]/kg[N applied]

 N uptake during growing season               86 kg[N uptake]/ha
   Dry Matter Productivity                  73.7 kg[DM]/kg[N uptake]
   Yield Productivity                       28.0 kg[yield]/kg[N uptake]

--------------------------------------------------------------------------------------------------------------

                     Maize YIELD :     2411 kg/ha    [Dry weight] 

**************************************************************************************************************

*DSSAT Cropping System Model Ver. 4.6.1.000 -release      OCT 24, 2017; 11:05:05
                                                                                
*RUN   8        : P08/18                    MZCER046 ANES2009    8              
 MODEL          : MZCER046 - Maize                                              
 EXPERIMENT     : ANES2009 MZ  MZ Analisis a침os de bajo rendimiento Espinal    
 DATA PATH      : C:\DSSAT46\maize\                                             
 TREATMENT  8   : P08/18                    MZCER046                            
                                                                                
                                                                                
 CROP           : Maize            CULTIVAR : DK7088           ECOTYPE :IB0001  
 STARTING DATE  : JUL 19 2009                                                   
 PLANTING DATE  : AUG 18 2009        PLANTS/m2 :  6.2     ROW SPACING :  80.cm  
 WEATHER        : CNAT   2009                                                   
 SOIL           : CCESPI2017     TEXTURE : SL    -   Suelo Espinal Calibraci    
 SOIL INITIAL C : DEPTH:100cm EXTR. H2O: 83.6mm  NO3:  0.0kg/ha  NH4:  0.0kg/ha 
 WATER BALANCE  : RAINFED                                                       
 IRRIGATION     : NOT IRRIGATED                                                 
 NITROGEN BAL.  : SOIL-N & N-UPTAKE SIMULATION; NO N-FIXATION                   
 N-FERTILIZER   :      162 kg/ha IN     6 APPLICATIONS                          
 RESIDUE/MANURE : INITIAL :     0 kg/ha ;       0 kg/ha IN     0 APPLICATIONS   
 ENVIRONM. OPT. : DAYL=    0.00  SRAD=    0.00  TMAX=    0.00  TMIN=    0.00    
                  RAIN=    0.00  CO2 =    0.00  DEW =    0.00  WIND=    0.00    
 SIMULATION OPT : WATER   :Y  NITROGEN:Y  N-FIX:N  PHOSPH :N  PESTS  :N         
                  PHOTO   :C  ET      :R  INFIL:S  HYDROL :R  SOM    :G         
                  CO2 387ppm  NSWIT   :1  EVAP :S  SOIL   :2  STEMP  :D         
 MANAGEMENT OPT : PLANTING:R  IRRIG   :N  FERT :D  RESIDUE:R  HARVEST:M         
                  WEATHER :M  TILLAGE :N                                        
                                                                                
*SUMMARY OF SOIL AND GENETIC INPUT PARAMETERS                                   
                                                                                
   SOIL LOWER UPPER   SAT  EXTR  INIT   ROOT   BULK     pH    NO3    NH4    ORG 
  DEPTH LIMIT LIMIT    SW    SW    SW   DIST   DENS                          C  
   cm   cm3/cm3    cm3/cm3    cm3/cm3         g/cm3         ugN/g  ugN/g     %  
------------------------------------------------------------------------------- 
  0-  5 0.160 0.252 0.376 0.092 0.252   1.00   1.69   6.60   0.00   0.00   0.45 
  5- 15 0.160 0.252 0.376 0.092 0.252   1.00   1.69   6.60   0.00   0.00   0.45 
 15- 30 0.160 0.252 0.376 0.092 0.252   1.00   1.69   6.60   0.00   0.00   0.45 
 30- 53 0.120 0.200 0.440 0.080 0.200   0.27   1.40   7.10   0.00   0.00   0.17 
 53- 77 0.120 0.200 0.440 0.080 0.200   0.27   1.40   7.10   0.00   0.00   0.17 
 77-100 0.120 0.200 0.440 0.080 0.200   0.27   1.40   7.10   0.00   0.00   0.17 
                                                                                
TOT-100  13.2  21.6  42.1   8.4  21.6  <--cm   -  kg/ha-->    0.0    0.0  39475 
SOIL ALBEDO    : 0.09      EVAPORATION LIMIT : 6.00         MIN. FACTOR  : 1.00 
RUNOFF CURVE # :76.00      DRAINAGE RATE     : 0.60         FERT. FACTOR : 1.00 
                                                                                
 Maize      CULTIVAR :CI0004-DK7088             ECOTYPE :IB0001                 
 P1     : 229.00  P2     : 0.3000  P5     : 971.00                              
 G2     : 957.00  G3     :  7.500  PHINT  : 45.000                              


*SIMULATED CROP AND SOIL STATUS AT MAIN DEVELOPMENT STAGES

 RUN NO.     8     P08/18                  

        CROP GROWTH     BIOMASS         LEAF   CROP N     STRESS      STRESS                                           
   DATE  AGE STAGE        kg/ha    LAI   NUM  kg/ha  %   H2O  Nitr Phos1 Phos2  RSTG                                   
 ------  --- ----------   -----  -----  ----  ---  ---  ----  ----  ----  ----  ----                                   
 19 JUL    0 Start Sim        0   0.00   0.0    0  0.0  0.00  0.00  0.00  0.00     7
 18 AUG    0 Sowing           0   0.00   0.0    0  0.0  0.00  0.00  0.00  0.00     8
 19 AUG    1 Germinate        0   0.00   0.0    0  0.0  0.00  0.00  0.00  0.00     9
 23 AUG    5 Emergence       25   0.00   2.2    1  4.4  0.00  0.01  0.00  0.00     1
  3 SEP   16 End Juveni     155   0.32   7.9    5  3.1  0.00  0.00  0.00  0.00     2
  8 SEP   21 Floral Ini     434   0.74  10.3   16  3.6  0.00  0.01  0.00  0.00     3
  7 OCT   50 75% Silkin    4235   2.03  21.4   90  2.1  0.47  0.00  0.00  0.00     4
 16 OCT   59 Beg Gr Fil    4691   1.49  21.4   90  1.9  0.74  0.00  0.00  0.00     5
 23 NOV   97 End Gr Fil    6264   0.45  21.4   90  1.4  0.71  0.00  0.00  0.00     6
 25 NOV   99 Maturity      6264   0.45  21.4   90  1.4  0.00  0.00  0.00  0.00    10
 25 NOV   99 Harvest       6264   0.45  21.4   90  1.4  0.00  0.00  0.00  0.00    10


*MAIN GROWTH AND DEVELOPMENT VARIABLES

@     VARIABLE                                         SIMULATED     MEASURED
      --------                                         ---------     --------
      Anthesis day (dap)                                      50          -99
      Physiological maturity day (dap)                        99          -99
      Yield at harvest maturity (kg [dm]/ha)                1973          -99
      Number at maturity (no/m2)                            1212          -99
[...]
 WATER BALANCE  : RAINFED                                                       
 IRRIGATION     : NOT IRRIGATED                                                 
 NITROGEN BAL.  : SOIL-N & N-UPTAKE SIMULATION; NO N-FIXATION                   
 N-FERTILIZER   :      162 kg/ha IN     6 APPLICATIONS                          
 RESIDUE/MANURE : INITIAL :     0 kg/ha ;       0 kg/ha IN     0 APPLICATIONS   
 ENVIRONM. OPT. : DAYL=    0.00  SRAD=    0.00  TMAX=    0.00  TMIN=    0.00    
                  RAIN=    0.00  CO2 =    0.00  DEW =    0.00  WIND=    0.00    
 SIMULATION OPT : WATER   :Y  NITROGEN:Y  N-FIX:N  PHOSPH :N  PESTS  :N         
                  PHOTO   :C  ET      :R  INFIL:S  HYDROL :R  SOM    :G         
                  CO2 388ppm  NSWIT   :1  EVAP :S  SOIL   :2  STEMP  :D         
 MANAGEMENT OPT : PLANTING:R  IRRIG   :N  FERT :D  RESIDUE:R  HARVEST:M         
                  WEATHER :M  TILLAGE :N                                        
                                                                                
*SUMMARY OF SOIL AND GENETIC INPUT PARAMETERS                                   
                                                                                
   SOIL LOWER UPPER   SAT  EXTR  INIT   ROOT   BULK     pH    NO3    NH4    ORG 
  DEPTH LIMIT LIMIT    SW    SW    SW   DIST   DENS                          C  
   cm   cm3/cm3    cm3/cm3    cm3/cm3         g/cm3         ugN/g  ugN/g     %  
------------------------------------------------------------------------------- 
  0-  5 0.160 0.252 0.376 0.092 0.252   1.00   1.69   6.60   0.00   0.00   0.45 
  5- 15 0.160 0.252 0.376 0.092 0.252   1.00   1.69   6.60   0.00   0.00   0.45 
 15- 30 0.160 0.252 0.376 0.092 0.252   1.00   1.69   6.60   0.00   0.00   0.45 
 30- 53 0.120 0.200 0.440 0.080 0.200   0.27   1.40   7.10   0.00   0.00   0.17 
 53- 77 0.120 0.200 0.440 0.080 0.200   0.27   1.40   7.10   0.00   0.00   0.17 
 77-100 0.120 0.200 0.440 0.080 0.200   0.27   1.40   7.10   0.00   0.00   0.17 
                                                                                
TOT-100  13.2  21.6  42.1   8.4  21.6  <--cm   -  kg/ha-->    0.0    0.0  39475 
SOIL ALBEDO    : 0.09      EVAPORATION LIMIT : 6.00         MIN. FACTOR  : 1.00 
RUNOFF CURVE # :76.00      DRAINAGE RATE     : 0.60         FERT. FACTOR : 1.00 
                                                                                
 Maize      CULTIVAR :CI0004-DK7088             ECOTYPE :IB0001                 
 P1     : 229.00  P2     : 0.3000  P5     : 971.00                              
 G2     : 957.00  G3     :  7.500  PHINT  : 45.000                              


*SIMULATED CROP AND SOIL STATUS AT MAIN DEVELOPMENT STAGES

 RUN NO.    31     P11/26                  

        CROP GROWTH     BIOMASS         LEAF   CROP N     STRESS      STRESS                                           
   DATE  AGE STAGE        kg/ha    LAI   NUM  kg/ha  %   H2O  Nitr Phos1 Phos2  RSTG                                   
 ------  --- ----------   -----  -----  ----  ---  ---  ----  ----  ----  ----  ----                                   
 26 NOV    0 Start Sim        0   0.00   0.0    0  0.0  0.00  0.00  0.00  0.00     7
 26 DEC    0 Sowing           0   0.00   0.0    0  0.0  0.00  0.00  0.00  0.00     8
 27 DEC    1 Germinate        0   0.00   0.0    0  0.0  0.00  0.00  0.00  0.00     9
 31 DEC    5 Emergence       25   0.00   2.2    1  4.4  0.00  0.01  0.00  0.00     1
 11 JAN   16 End Juveni     151   0.31   7.9    5  3.2  0.00  0.00  0.00  0.00     2
 15 JAN   20 Floral Ini     359   0.64   9.8   13  3.7  0.00  0.00  0.00  0.00     3
 13 FEB   49 75% Silkin    2116   0.95  20.3   27  1.3  0.69  0.29  0.00  0.00     4
 21 FEB   57 Beg Gr Fil    2240   0.70  20.3   28  1.2  0.84  0.43  0.00  0.00     5
 29 MAR   93 End Gr Fil    3325   0.54  20.3   40  1.2  0.21  0.05  0.00  0.00     6
  1 APR   96 Maturity      3325   0.54  20.3   40  1.2  0.00  0.00  0.00  0.00    10
  1 APR   96 Harvest       3325   0.54  20.3   40  1.2  0.00  0.00  0.00  0.00    10


*MAIN GROWTH AND DEVELOPMENT VARIABLES

@     VARIABLE                                         SIMULATED     MEASURED
      --------                                         ---------     --------
      Anthesis day (dap)                                      49          -99
      Physiological maturity day (dap)                        96          -99
      Yield at harvest maturity (kg [dm]/ha)                1011          -99
      Number at maturity (no/m2)                             523          -99
      Unit wt at maturity (g [dm]/unit)                   0.1933          -99
      Number at maturity (no/unit)                          91.9          -99
      Tops weight at maturity (kg [dm]/ha)                  3325          -99
      By-product produced (stalk) at maturity (kg[dm]/ha    2345          -99
      Leaf area index, maximum                              1.35          -99
      Harvest index at maturity                            0.304          -99
      Grain N at maturity (kg/ha)                             18          -99
      Tops N at maturity (kg/ha)                              40          -99
      Stem N at maturity (kg/ha)                              21          -99
      Grain N at maturity (%)                                1.7          -99
      Tops weight at anthesis (kg [dm]/ha)                  2098          -99
      Tops N at anthesis (kg/ha)                              27          -99
      Leaf number per stem at maturity                     20.26          -99
      Emergence day (dap)                                      5          -99


*ENVIRONMENTAL AND STRESS FACTORS

 |-----Development Phase------|--------------------------------------Environment--------------------------------------|-----------------Stress-----------------|
                              |---------------Average--------------|-----Cumulative-----|--------Count of days--------|          (0=Min, 1=Max Stress)         |
                         Time  Temp  Temp  Temp Solar Photop                Evapo    Pot TMIN TMIN TMAX TMAX TMAX RAIN|----Water----|---Nitrogen--|-Phosphorus-|
                         Span   Max   Min  Mean   Rad  [day]    CO2   Rain  Trans     ET   <    <    >    >    >    >   Photo         Photo         Photo
                         days    邂    邂    邂 MJ/m2     hr    ppm     mm     mm     mm  0邂  2邂 30邂 32邂 34邂  0mm  synth Growth  synth Growth  synth Growth
----------------------------------------------------------------------------------------------------------------------------------------------------------------
 Emergence-End Juvenile    11  33.7  22.3  28.0  20.5   0.00  388.5  109.8   33.3   66.1    0    0   11   11    4    4  0.000  0.000  0.002  0.006  0.000  0.000
 End Juvenil-Floral Init    4  34.6  22.5  28.5  21.0   0.00  388.5    0.0    7.7   24.1    0    0    4    4    4    0  0.000  0.000  0.001  0.002  0.000  0.000
 Floral Init-End Lf Grow   29  34.4  22.4  28.4  19.9   0.00  388.8    2.0   44.5  159.4    0    0   27   24   19    3  0.503  0.657  0.111  0.273  0.000  0.000
 End Lf Grth-Beg Grn Fil    8  35.1  23.8  29.4  20.2   0.00  389.0    1.5    7.2   45.9    0    0    8    8    5    2  0.764  0.843  0.176  0.441  0.000  0.000
 Grain Filling Phase       36  34.4  22.9  28.6  19.6   7.10  389.1  422.6  122.7  203.1    0    0   35   31   23   12  0.164  0.235  0.024  0.059  0.000  0.000


 Planting to Harvest       96  34.2  22.6  28.4  19.9   3.12  388.9  608.8  247.1  543.4    0    0   93   83   56   22  0.277  0.357  0.057  0.142  0.000  0.000
----------------------------------------------------------------------------------------------------------------------------------------------------------------


*Resource Productivity
 Growing season length:  96 days 

 Precipitation during growing season       608.8 mm[rain]
   Dry Matter Productivity                  0.55 kg[DM]/m3[rain]          =    5.5 kg[DM]/ha per mm[rain]
   Yield Productivity                       0.17 kg[grain yield]/m3[rain] =    1.7 kg[yield]/ha per mm[rain]

 Evapotranspiration during growing season  247.1 mm[ET]
   Dry Matter Productivity                  1.35 kg[DM]/m3[ET]            =   13.5 kg[DM]/ha per mm[ET]
   Yield Productivity                       0.41 kg[grain yield]/m3[ET]   =    4.1 kg[yield]/ha per mm[ET]

 Transpiration during growing season       111.9 mm[EP]
   Dry Matter Productivity                  2.97 kg[DM]/m3[EP]            =   29.7 kg[DM]/ha per mm[EP]
   Yield Productivity                       0.90 kg[grain yield]/m3[EP]   =    9.0 kg[yield]/ha per mm[EP]

 N applied during growing season            162. kg[N applied]/ha
   Dry Matter Productivity                  20.5 kg[DM]/kg[N applied]
   Yield Productivity                        6.2 kg[yield]/kg[N applied]

 N uptake during growing season               52 kg[N uptake]/ha
   Dry Matter Productivity                  63.9 kg[DM]/kg[N uptake]
   Yield Productivity                       19.4 kg[yield]/kg[N uptake]

--------------------------------------------------------------------------------------------------------------

                     Maize YIELD :     1011 kg/ha    [Dry weight] 

**************************************************************************************************************

*DSSAT Cropping System Model Ver. 4.6.1.000 -release      OCT 24, 2017; 11:05:17
                                                                                
*RUN  32        : P12/31                    MZCER046 ANES2009   32              
 MODEL          : MZCER046 - Maize                                              
 EXPERIMENT     : ANES2009 MZ  MZ Analisis a침os de bajo rendimiento Espinal    
 DATA PATH      : C:\DSSAT46\maize\                                             
 TREATMENT 32   : P12/31                    MZCER046                            
                                                                                
                                                                                
 CROP           : Maize            CULTIVAR : DK7088           ECOTYPE :IB0001  
 STARTING DATE  : DEC  1 2009                                                   
 PLANTING DATE  : DEC 31 2009        PLANTS/m2 :  6.2     ROW SPACING :  80.cm  
 WEATHER        : CNAT   2009                                                   
 SOIL           : CCESPI2017     TEXTURE : SL    -   Suelo Espinal Calibraci    
 SOIL INITIAL C : DEPTH:100cm EXTR. H2O: 83.6mm  NO3:  0.0kg/ha  NH4:  0.0kg/ha 
 WATER BALANCE  : RAINFED                                                       
 IRRIGATION     : NOT IRRIGATED                                                 
 NITROGEN BAL.  : SOIL-N & N-UPTAKE SIMULATION; NO N-FIXATION                   
 N-FERTILIZER   :      162 kg/ha IN     6 APPLICATIONS                          
 RESIDUE/MANURE : INITIAL :     0 kg/ha ;       0 kg/ha IN     0 APPLICATIONS   
 ENVIRONM. OPT. : DAYL=    0.00  SRAD=    0.00  TMAX=    0.00  TMIN=    0.00    
                  RAIN=    0.00  CO2 =    0.00  DEW =    0.00  WIND=    0.00    
 SIMULATION OPT : WATER   :Y  NITROGEN:Y  N-FIX:N  PHOSPH :N  PESTS  :N         
                  PHOTO   :C  ET      :R  INFIL:S  HYDROL :R  SOM    :G         
                  CO2 388ppm  NSWIT   :1  EVAP :S  SOIL   :2  STEMP  :D         
 MANAGEMENT OPT : PLANTING:R  IRRIG   :N  FERT :D  RESIDUE:R  HARVEST:M         
                  WEATHER :M  TILLAGE :N                                        
                                                                                
*SUMMARY OF SOIL AND GENETIC INPUT PARAMETERS                                   
                                                                                
   SOIL LOWER UPPER   SAT  EXTR  INIT   ROOT   BULK     pH    NO3    NH4    ORG 
  DEPTH LIMIT LIMIT    SW    SW    SW   DIST   DENS                          C  
   cm   cm3/cm3    cm3/cm3    cm3/cm3         g/cm3         ugN/g  ugN/g     %  
------------------------------------------------------------------------------- 
  0-  5 0.160 0.252 0.376 0.092 0.252   1.00   1.69   6.60   0.00   0.00   0.45 
  5- 15 0.160 0.252 0.376 0.092 0.252   1.00   1.69   6.60   0.00   0.00   0.45 
 15- 30 0.160 0.252 0.376 0.092 0.252   1.00   1.69   6.60   0.00   0.00   0.45 
 30- 53 0.120 0.200 0.440 0.080 0.200   0.27   1.40   7.10   0.00   0.00   0.17 
 53- 77 0.120 0.200 0.440 0.080 0.200   0.27   1.40   7.10   0.00   0.00   0.17 
 77-100 0.120 0.200 0.440 0.080 0.200   0.27   1.40   7.10   0.00   0.00   0.17 
                                                                                
TOT-100  13.2  21.6  42.1   8.4  21.6  <--cm   -  kg/ha-->    0.0    0.0  39475 
SOIL ALBEDO    : 0.09      EVAPORATION LIMIT : 6.00         MIN. FACTOR  : 1.00 
RUNOFF CURVE # :76.00      DRAINAGE RATE     : 0.60         FERT. FACTOR : 1.00 
                                                                                
 Maize      CULTIVAR :CI0004-DK7088             ECOTYPE :IB0001                 
 P1     : 229.00  P2     : 0.3000  P5     : 971.00                              
 G2     : 957.00  G3     :  7.500  PHINT  : 45.000                              


*SIMULATED CROP AND SOIL STATUS AT MAIN DEVELOPMENT STAGES

 RUN NO.    32     P12/31                  

        CROP GROWTH     BIOMASS         LEAF   CROP N     STRESS      STRESS                                           
   DATE  AGE STAGE        kg/ha    LAI   NUM  kg/ha  %   H2O  Nitr Phos1 Phos2  RSTG                                   
 ------  --- ----------   -----  -----  ----  ---  ---  ----  ----  ----  ----  ----                                   
  1 DEC    0 Start Sim        0   0.00   0.0    0  0.0  0.00  0.00  0.00  0.00     7
 31 DEC    0 Sowing           0   0.00   0.0    0  0.0  0.00  0.00  0.00  0.00     8
  1 JAN    1 Germinate        0   0.00   0.0    0  0.0  0.00  0.00  0.00  0.00     9
  5 JAN    5 Emergence       25   0.00   2.2    1  4.4  0.00  0.01  0.00  0.00     1
 16 JAN   16 End Juveni     148   0.30   8.0    3  2.1  0.01  0.10  0.00  0.00     2
 20 JAN   20 Floral Ini     226   0.39  10.0    4  1.6  0.00  0.61  0.00  0.00     3
 18 FEB   49 75% Silkin    1230   0.44  20.8    8  0.7  0.52  0.81  0.00  0.00     4
 26 FEB   57 Beg Gr Fil    1355   0.32  20.8   24  1.8  0.73  0.82  0.00  0.00     5
  4 APR   94 End Gr Fil    1617   0.32  20.8   24  1.5  0.00  0.00  0.00  0.00     6
  7 APR   97 Maturity      1617   0.32  20.8   24  1.5  0.00  0.00  0.00  0.00    10
  7 APR   97 Harvest       1617   0.32  20.8   24  1.5  0.00  0.00  0.00  0.00    10


*MAIN GROWTH AND DEVELOPMENT VARIABLES

@     VARIABLE                                         SIMULATED     MEASURED
      --------                                         ---------     --------
      Anthesis day (dap)                                      49          -99
      Physiological maturity day (dap)                        97          -99
      Yield at harvest maturity (kg [dm]/ha)                 249          -99
      Number at maturity (no/m2)                             101          -99
      Unit wt at maturity (g [dm]/unit)                   0.2472          -99
      Number at maturity (no/unit)                          18.5          -99
      Tops weight at maturity (kg [dm]/ha)                  1617          -99
      By-product produced (stalk) at maturity (kg[dm]/ha    1387          -99
      Leaf area index, maximum                              0.61          -99
      Harvest index at maturity                            0.154          -99
      Grain N at maturity (kg/ha)                              4          -99
      Tops N at maturity (kg/ha)                              24          -99
      Stem N at maturity (kg/ha)                              19          -99
      Grain N at maturity (%)                                1.6          -99
      Tops weight at anthesis (kg [dm]/ha)                  1209          -99
      Tops N at anthesis (kg/ha)                               8          -99
      Leaf number per stem at maturity                     20.83          -99
      Emergence day (dap)                                      5          -99


*ENVIRONMENTAL AND STRESS FACTORS

 |-----Development Phase------|--------------------------------------Environment--------------------------------------|-----------------Stress-----------------|
                              |---------------Average--------------|-----Cumulative-----|--------Count of days--------|          (0=Min, 1=Max Stress)         |
                         Time  Temp  Temp  Temp Solar Photop                Evapo    Pot TMIN TMIN TMAX TMAX TMAX RAIN|----Water----|---Nitrogen--|-Phosphorus-|
                         Span   Max   Min  Mean   Rad  [day]    CO2   Rain  Trans     ET   <    <    >    >    >    >   Photo         Photo         Photo
                         days    邂    邂    邂 MJ/m2     hr    ppm     mm     mm     mm  0邂  2邂 30邂 32邂 34邂  0mm  synth Growth  synth Growth  synth Growth
----------------------------------------------------------------------------------------------------------------------------------------------------------------
 Emergence-End Juvenile    11  34.3  22.7  28.5  20.8   0.00  388.6  106.7   34.6   67.6    0    0   11   11    8    3  0.000  0.012  0.024  0.061  0.000  0.000
 End Juvenil-Floral Init    4  34.9  22.7  28.8  20.7   0.00  388.8    0.0    6.4   24.1    0    0    4    4    3    0  0.000  0.000  0.282  0.553  0.000  0.000
 Floral Init-End Lf Grow   29  34.4  22.6  28.5  19.6   0.00  388.8    3.3   37.7  163.5    0    0   27   24   17    4  0.343  0.487  0.560  0.800  0.000  0.000
 End Lf Grth-Beg Grn Fil    8  34.9  23.6  29.2  20.2   0.00  389.0    0.2    5.8   47.9    0    0    8    7    5    1  0.642  0.762  0.596  0.830  0.000  0.000
 Grain Filling Phase       37  34.2  22.7  28.5  19.5   9.38  389.1  498.4  143.1  212.2    0    0   36   30   24   14  0.008  0.014  0.015  0.022  0.000  0.000


 Planting to Harvest       97  34.3  22.6  28.4  19.8   4.10  388.9  611.7  236.6  561.7    0    0   94   83   58   23  0.159  0.215  0.237  0.346  0.000  0.000
----------------------------------------------------------------------------------------------------------------------------------------------------------------


*Resource Productivity
 Growing season length:  97 days 

 Precipitation during growing season       611.7 mm[rain]
   Dry Matter Productivity                  0.26 kg[DM]/m3[rain]          =    2.6 kg[DM]/ha per mm[rain]
   Yield Productivity                       0.04 kg[grain yield]/m3[rain] =    0.4 kg[yield]/ha per mm[rain]

 Evapotranspiration during growing season  236.6 mm[ET]
   Dry Matter Productivity                  0.68 kg[DM]/m3[ET]            =    6.8 kg[DM]/ha per mm[ET]
   Yield Productivity                       0.11 kg[grain yield]/m3[ET]   =    1.1 kg[yield]/ha per mm[ET]

 Transpiration during growing season        87.0 mm[EP]
   Dry Matter Productivity                  1.86 kg[DM]/m3[EP]            =   18.6 kg[DM]/ha per mm[EP]
   Yield Productivity                       0.29 kg[grain yield]/m3[EP]   =    2.9 kg[yield]/ha per mm[EP]

 N applied during growing season            162. kg[N applied]/ha
   Dry Matter Productivity                  10.0 kg[DM]/kg[N applied]
   Yield Productivity                        1.5 kg[yield]/kg[N applied]

 N uptake during growing season               26 kg[N uptake]/ha
   Dry Matter Productivity                  62.2 kg[DM]/kg[N uptake]
   Yield Productivity                        9.6 kg[yield]/kg[N uptake]

--------------------------------------------------------------------------------------------------------------

                     Maize YIELD :      249 kg/ha    [Dry weight] 

**************************************************************************************************************
