*SIMULATION OVERVIEW FILE

*DSSAT Cropping System Model Ver. 4.6.1.000 -release      OCT 24, 2017; 11:02:42
                                                                                
*RUN   1        : P07/14                    MZCER046 ANES2009    1              
 MODEL          : MZCER046 - Maize                                              
 EXPERIMENT     : ANES2009 MZ  MZ Analisis a침os de bajo rendimiento Espinal    
 DATA PATH      : C:\DSSAT46\maize\                                             
 TREATMENT  1   : P07/14                    MZCER046                            
                                                                                
                                                                                
 CROP           : Maize            CULTIVAR : DK234            ECOTYPE :IB0001  
 STARTING DATE  : JUN 14 2009                                                   
 PLANTING DATE  : JUL 14 2009        PLANTS/m2 :  6.2     ROW SPACING :  80.cm  
 WEATHER        : CNAT   2009                                                   
 SOIL           : CCESPI2017     TEXTURE : SL    -   Suelo Espinal Calibraci    
 SOIL INITIAL C : DEPTH:100cm EXTR. H2O: 83.6mm  NO3:  0.0kg/ha  NH4:  0.0kg/ha 
 WATER BALANCE  : RAINFED                                                       
 IRRIGATION     : NOT IRRIGATED                                                 
 NITROGEN BAL.  : SOIL-N & N-UPTAKE SIMULATION; NO N-FIXATION                   
 N-FERTILIZER   :      162 kg/ha IN     6 APPLICATIONS                          
 RESIDUE/MANURE : INITIAL :     0 kg/ha ;       0 kg/ha IN     0 APPLICATIONS   
 ENVIRONM. OPT. : DAYL=    0.00  SRAD=    0.00  TMAX=    0.00  TMIN=    0.00    
                  RAIN=    0.00  CO2 =    0.00  DEW =    0.00  WIND=    0.00    
 SIMULATION OPT : WATER   :Y  NITROGEN:Y  N-FIX:N  PHOSPH :N  PESTS  :N         
                  PHOTO   :C  ET      :R  INFIL:S  HYDROL :R  SOM    :G         
                  CO2 387ppm  NSWIT   :1  EVAP :S  SOIL   :2  STEMP  :D         
 MANAGEMENT OPT : PLANTING:R  IRRIG   :N  FERT :D  RESIDUE:R  HARVEST:M         
                  WEATHER :M  TILLAGE :N                                        
                                                                                
*SUMMARY OF SOIL AND GENETIC INPUT PARAMETERS                                   
                                                                                
   SOIL LOWER UPPER   SAT  EXTR  INIT   ROOT   BULK     pH    NO3    NH4    ORG 
  DEPTH LIMIT LIMIT    SW    SW    SW   DIST   DENS                          C  
   cm   cm3/cm3    cm3/cm3    cm3/cm3         g/cm3         ugN/g  ugN/g     %  
------------------------------------------------------------------------------- 
  0-  5 0.160 0.252 0.376 0.092 0.252   1.00   1.69   6.60   0.00   0.00   0.45 
  5- 15 0.160 0.252 0.376 0.092 0.252   1.00   1.69   6.60   0.00   0.00   0.45 
 15- 30 0.160 0.252 0.376 0.092 0.252   1.00   1.69   6.60   0.00   0.00   0.45 
 30- 53 0.120 0.200 0.440 0.080 0.200   0.27   1.40   7.10   0.00   0.00   0.17 
 53- 77 0.120 0.200 0.440 0.080 0.200   0.27   1.40   7.10   0.00   0.00   0.17 
 77-100 0.120 0.200 0.440 0.080 0.200   0.27   1.40   7.10   0.00   0.00   0.17 
                                                                                
TOT-100  13.2  21.6  42.1   8.4  21.6  <--cm   -  kg/ha-->    0.0    0.0  39475 
SOIL ALBEDO    : 0.09      EVAPORATION LIMIT : 6.00         MIN. FACTOR  : 1.00 
RUNOFF CURVE # :76.00      DRAINAGE RATE     : 0.60         FERT. FACTOR : 1.00 
                                                                                
 Maize      CULTIVAR :CI0002-DK234              ECOTYPE :IB0001                 
 P1     : 300.00  P2     : 0.4000  P5     :1075.00                              
 G2     : 890.00  G3     :  7.750  PHINT  : 40.000                              


*SIMULATED CROP AND SOIL STATUS AT MAIN DEVELOPMENT STAGES

 RUN NO.     1     P07/14                  

        CROP GROWTH     BIOMASS         LEAF   CROP N     STRESS      STRESS                                           
   DATE  AGE STAGE        kg/ha    LAI   NUM  kg/ha  %   H2O  Nitr Phos1 Phos2  RSTG                                   
 ------  --- ----------   -----  -----  ----  ---  ---  ----  ----  ----  ----  ----                                   
 14 JUN    0 Start Sim        0   0.00   0.0    0  0.0  0.00  0.00  0.00  0.00     7
 14 JUL    0 Sowing           0   0.00   0.0    0  0.0  0.00  0.00  0.00  0.00     8
 15 JUL    1 Germinate        0   0.00   0.0    0  0.0  0.00  0.00  0.00  0.00     9
 19 JUL    5 Emergence       25   0.01   2.3    1  4.4  0.00  0.01  0.00  0.00     1
  2 AUG   19 End Juveni     256   0.46  10.2    6  2.2  0.19  0.09  0.00  0.00     2
 10 AUG   27 Floral Ini     513   0.67  14.4    7  1.4  0.40  0.70  0.00  0.00     3
 14 SEP   62 75% Silkin    2959   0.92  29.5   72  2.4  0.65  0.14  0.00  0.00     4
 22 SEP   70 Beg Gr Fil    4081   0.92  29.5   72  1.8  0.00  0.00  0.00  0.00     5
  3 NOV  112 End Gr Fil    6869   0.44  29.5   85  1.2  0.47  0.00  0.00  0.00     6
  6 NOV  115 Maturity      6869   0.44  29.5   85  1.2  0.72  0.00  0.00  0.00    10
  6 NOV  115 Harvest       6869   0.44  29.5   85  1.2  0.00  0.00  0.00  0.00    10


*MAIN GROWTH AND DEVELOPMENT VARIABLES

@     VARIABLE                                         SIMULATED     MEASURED
      --------                                         ---------     --------
      Anthesis day (dap)                                      62          -99
      Physiological maturity day (dap)                       115          -99
      Yield at harvest maturity (kg [dm]/ha)                3333          -99
      Number at maturity (no/m2)                            1698          -99
      Unit wt at maturity (g [dm]/unit)                   0.1963          -99
      Number at maturity (no/unit)                         273.9          -99
      Tops weight at maturity (kg [dm]/ha)                  6869          -99
      By-product produced (stalk) at maturity (kg[dm]/ha    3576          -99
      Leaf area index, maximum                              1.36          -99
      Harvest index at maturity                            0.485          -99
      Grain N at maturity (kg/ha)                             60          -99
      Tops N at maturity (kg/ha)                              85          -99
      Stem N at maturity (kg/ha)                              25          -99
      Grain N at maturity (%)                                1.8          -99
      Tops weight at anthesis (kg [dm]/ha)                  2962          -99
      Tops N at anthesis (kg/ha)                              72          -99
      Leaf number per stem at maturity                     29.48          -99
      Emergence day (dap)                                      5          -99


*ENVIRONMENTAL AND STRESS FACTORS

 |-----Development Phase------|--------------------------------------Environment--------------------------------------|-----------------Stress-----------------|
                              |---------------Average--------------|-----Cumulative-----|--------Count of days--------|          (0=Min, 1=Max Stress)         |
                         Time  Temp  Temp  Temp Solar Photop                Evapo    Pot TMIN TMIN TMAX TMAX TMAX RAIN|----Water----|---Nitrogen--|-Phosphorus-|
                         Span   Max   Min  Mean   Rad  [day]    CO2   Rain  Trans     ET   <    <    >    >    >    >   Photo         Photo         Photo
                         days    邂    邂    邂 MJ/m2     hr    ppm     mm     mm     mm  0邂  2邂 30邂 32邂 34邂  0mm  synth Growth  synth Growth  synth Growth
----------------------------------------------------------------------------------------------------------------------------------------------------------------
 Emergence-End Juvenile    14  34.5  21.7  28.1  19.6  24.00  387.5    0.0    9.2   79.3    0    0   14   13   10    0  0.048  0.150  0.022  0.054  0.000  0.000
 End Juvenil-Floral Init    8  34.5  22.3  28.4  18.0  24.00  387.5    0.0   11.3   41.2    0    0    8    6    6    0  0.164  0.389  0.393  0.660  0.000  0.000
 Floral Init-End Lf Grow   35  34.8  22.1  28.5  20.4  21.26  387.6   50.5   66.7  200.1    0    0   34   32   24    8  0.530  0.646  0.116  0.163  0.000  0.000
 End Lf Grth-Beg Grn Fil    8  34.6  21.9  28.2  20.8  13.11  387.8  134.1   36.0   46.9    0    0    8    7    4    4  0.116  0.119  0.000  0.000  0.000  0.000
 Grain Filling Phase       42  34.7  22.3  28.5  20.1   3.93  388.0   36.2   93.1  243.6    0    0   41   35   27   10  0.348  0.458  0.000  0.000  0.000  0.000


 Planting to Harvest      115  34.6  22.0  28.3  19.9  14.45  387.7  221.8  221.8  653.1    0    0  113  100   74   24  0.325  0.434  0.065  0.102  0.000  0.000
----------------------------------------------------------------------------------------------------------------------------------------------------------------


*Resource Productivity
 Growing season length: 115 days 

 Precipitation during growing season       221.8 mm[rain]
   Dry Matter Productivity                  3.10 kg[DM]/m3[rain]          =   31.0 kg[DM]/ha per mm[rain]
   Yield Productivity                       1.50 kg[grain yield]/m3[rain] =   15.0 kg[yield]/ha per mm[rain]

 Evapotranspiration during growing season  221.8 mm[ET]
   Dry Matter Productivity                  3.10 kg[DM]/m3[ET]            =   31.0 kg[DM]/ha per mm[ET]
   Yield Productivity                       1.50 kg[grain yield]/m3[ET]   =   15.0 kg[yield]/ha per mm[ET]

 Transpiration during growing season       142.4 mm[EP]
   Dry Matter Productivity                  4.82 kg[DM]/m3[EP]            =   48.2 kg[DM]/ha per mm[EP]
   Yield Productivity                       2.34 kg[grain yield]/m3[EP]   =   23.4 kg[yield]/ha per mm[EP]

 N applied during growing season            162. kg[N applied]/ha
   Dry Matter Productivity                  42.4 kg[DM]/kg[N applied]
   Yield Productivity                       20.6 kg[yield]/kg[N applied]

 N uptake during growing season               93 kg[N uptake]/ha
   Dry Matter Productivity                  73.9 kg[DM]/kg[N uptake]
   Yield Productivity                       35.8 kg[yield]/kg[N uptake]

--------------------------------------------------------------------------------------------------------------

                     Maize YIELD :     3333 kg/ha    [Dry weight] 

**************************************************************************************************************

*DSSAT Cropping System Model Ver. 4.6.1.000 -release      OCT 24, 2017; 11:02:43
                                                                                
*RUN   2        : P07/19                    MZCER046 ANES2009    2              
 MODEL          : MZCER046 - Maize                                              
 EXPERIMENT     : ANES2009 MZ  MZ Analisis a침os de bajo rendimiento Espinal    
 DATA PATH      : C:\DSSAT46\maize\                                             
 TREATMENT  2   : P07/19                    MZCER046                            
                                                                                
                                                                                
 CROP           : Maize            CULTIVAR : DK234            ECOTYPE :IB0001  
 STARTING DATE  : JUN 19 2009                                                   
 PLANTING DATE  : JUL 19 2009        PLANTS/m2 :  6.2     ROW SPACING :  80.cm  
 WEATHER        : CNAT   2009                                                   
 SOIL           : CCESPI2017     TEXTURE : SL    -   Suelo Espinal Calibraci    
 SOIL INITIAL C : DEPTH:100cm EXTR. H2O: 83.6mm  NO3:  0.0kg/ha  NH4:  0.0kg/ha 
 WATER BALANCE  : RAINFED                                                       
 IRRIGATION     : NOT IRRIGATED                                                 
 NITROGEN BAL.  : SOIL-N & N-UPTAKE SIMULATION; NO N-FIXATION                   
 N-FERTILIZER   :      162 kg/ha IN     6 APPLICATIONS                          
 RESIDUE/MANURE : INITIAL :     0 kg/ha ;       0 kg/ha IN     0 APPLICATIONS   
 ENVIRONM. OPT. : DAYL=    0.00  SRAD=    0.00  TMAX=    0.00  TMIN=    0.00    
                  RAIN=    0.00  CO2 =    0.00  DEW =    0.00  WIND=    0.00    
 SIMULATION OPT : WATER   :Y  NITROGEN:Y  N-FIX:N  PHOSPH :N  PESTS  :N         
                  PHOTO   :C  ET      :R  INFIL:S  HYDROL :R  SOM    :G         
                  CO2 387ppm  NSWIT   :1  EVAP :S  SOIL   :2  STEMP  :D         
 MANAGEMENT OPT : PLANTING:R  IRRIG   :N  FERT :D  RESIDUE:R  HARVEST:M         
                  WEATHER :M  TILLAGE :N                                        
                                                                                
*SUMMARY OF SOIL AND GENETIC INPUT PARAMETERS                                   
                                                                                
   SOIL LOWER UPPER   SAT  EXTR  INIT   ROOT   BULK     pH    NO3    NH4    ORG 
  DEPTH LIMIT LIMIT    SW    SW    SW   DIST   DENS                          C  
   cm   cm3/cm3    cm3/cm3    cm3/cm3         g/cm3         ugN/g  ugN/g     %  
------------------------------------------------------------------------------- 
  0-  5 0.160 0.252 0.376 0.092 0.252   1.00   1.69   6.60   0.00   0.00   0.45 
  5- 15 0.160 0.252 0.376 0.092 0.252   1.00   1.69   6.60   0.00   0.00   0.45 
 15- 30 0.160 0.252 0.376 0.092 0.252   1.00   1.69   6.60   0.00   0.00   0.45 
 30- 53 0.120 0.200 0.440 0.080 0.200   0.27   1.40   7.10   0.00   0.00   0.17 
 53- 77 0.120 0.200 0.440 0.080 0.200   0.27   1.40   7.10   0.00   0.00   0.17 
 77-100 0.120 0.200 0.440 0.080 0.200   0.27   1.40   7.10   0.00   0.00   0.17 
                                                                                
TOT-100  13.2  21.6  42.1   8.4  21.6  <--cm   -  kg/ha-->    0.0    0.0  39475 
SOIL ALBEDO    : 0.09      EVAPORATION LIMIT : 6.00         MIN. FACTOR  : 1.00 
RUNOFF CURVE # :76.00      DRAINAGE RATE     : 0.60         FERT. FACTOR : 1.00 
                                                                                
 Maize      CULTIVAR :CI0002-DK234              ECOTYPE :IB0001                 
 P1     : 300.00  P2     : 0.4000  P5     :1075.00                              
 G2     : 890.00  G3     :  7.750  PHINT  : 40.000                              


*SIMULATED CROP AND SOIL STATUS AT MAIN DEVELOPMENT STAGES

 RUN NO.     2     P07/19                  

        CROP GROWTH     BIOMASS         LEAF   CROP N     STRESS      STRESS                                           
   DATE  AGE STAGE        kg/ha    LAI   NUM  kg/ha  %   H2O  Nitr Phos1 Phos2  RSTG                                   
 ------  --- ----------   -----  -----  ----  ---  ---  ----  ----  ----  ----  ----                                   
 19 JUN    0 Start Sim        0   0.00   0.0    0  0.0  0.00  0.00  0.00  0.00     7
 19 JUL    0 Sowing           0   0.00   0.0    0  0.0  0.00  0.00  0.00  0.00     8
 20 JUL    1 Germinate        0   0.00   0.0    0  0.0  0.00  0.00  0.00  0.00     9
 24 JUL    5 Emergence       25   0.01   2.3    1  4.4  0.00  0.01  0.00  0.00     1
  7 AUG   19 End Juveni     296   0.53  10.4    6  1.9  0.18  0.08  0.00  0.00     2
 15 AUG   27 Floral Ini     530   0.67  14.4    7  1.3  0.57  0.74  0.00  0.00     3
 19 SEP   62 75% Silkin    3914   1.31  29.6   82  2.1  0.55  0.02  0.00  0.00     4
 27 SEP   70 Beg Gr Fil    5372   1.27  29.6   82  1.5  0.19  0.00  0.00  0.00     5
  8 NOV  112 End Gr Fil    7892   0.41  29.6   93  1.2  0.65  0.00  0.00  0.00     6
 11 NOV  115 Maturity      7892   0.41  29.6   93  1.2  0.82  0.00  0.00  0.00    10
 11 NOV  115 Harvest       7892   0.41  29.6   93  1.2  0.00  0.00  0.00  0.00    10


*MAIN GROWTH AND DEVELOPMENT VARIABLES

@     VARIABLE                                         SIMULATED     MEASURED
      --------                                         ---------     --------
      Anthesis day (dap)                                      62          -99
      Physiological maturity day (dap)                       115          -99
      Yield at harvest maturity (kg [dm]/ha)                3396          -99
      Number at maturity (no/m2)                            2398          -99
      Unit wt at maturity (g [dm]/unit)                   0.1416          -99
      Number at maturity (no/unit)                         386.8          -99
      Tops weight at maturity (kg [dm]/ha)                  7892          -99
      By-product produced (stalk) at maturity (kg[dm]/ha    4541          -99
      Leaf area index, maximum                              1.55          -99
      Harvest index at maturity                            0.430          -99
      Grain N at maturity (kg/ha)                             62          -99
      Tops N at maturity (kg/ha)                              93          -99
      Stem N at maturity (kg/ha)                              31          -99
      Grain N at maturity (%)                                1.8          -99
      Tops weight at anthesis (kg [dm]/ha)                  3692          -99
      Tops N at anthesis (kg/ha)                              79          -99
      Leaf number per stem at maturity                     29.65          -99
      Emergence day (dap)                                      5          -99


*ENVIRONMENTAL AND STRESS FACTORS

 |-----Development Phase------|--------------------------------------Environment--------------------------------------|-----------------Stress-----------------|
                              |---------------Average--------------|-----Cumulative-----|--------Count of days--------|          (0=Min, 1=Max Stress)         |
                         Time  Temp  Temp  Temp Solar Photop                Evapo    Pot TMIN TMIN TMAX TMAX TMAX RAIN|----Water----|---Nitrogen--|-Phosphorus-|
                         Span   Max   Min  Mean   Rad  [day]    CO2   Rain  Trans     ET   <    <    >    >    >    >   Photo         Photo         Photo
                         days    邂    邂    邂 MJ/m2     hr    ppm     mm     mm     mm  0邂  2邂 30邂 32邂 34邂  0mm  synth Growth  synth Growth  synth Growth
----------------------------------------------------------------------------------------------------------------------------------------------------------------
 Emergence-End Juvenile    14  35.1  21.9  28.5  19.6  24.00  387.5    0.0    9.3   80.7    0    0   14   13   13    0  0.019  0.141  0.019  0.049  0.000  0.000
 End Juvenil-Floral Init    8  35.1  21.7  28.4  19.5  24.00  387.5    0.7   10.5   44.8    0    0    8    7    7    1  0.332  0.551  0.440  0.700  0.000  0.000
 Floral Init-End Lf Grow   35  34.7  22.1  28.4  20.3  19.78  387.7  179.3   85.5  197.0    0    0   34   31   22   10  0.474  0.569  0.033  0.047  0.000  0.000
 End Lf Grth-Beg Grn Fil    8  35.2  22.3  28.8  21.8  11.40  387.9    4.6   35.5   48.8    0    0    8    8    5    1  0.037  0.118  0.000  0.000  0.000  0.000
 Grain Filling Phase       42  34.4  22.3  28.3  19.3   2.63  388.0   37.8   68.3  230.6    0    0   41   34   23   13  0.543  0.645  0.000  0.000  0.000  0.000


 Planting to Harvest      115  34.6  22.1  28.4  19.8  13.41  387.8  235.2  213.4  645.5    0    0  113  100   73   27  0.391  0.495  0.043  0.069  0.000  0.000
----------------------------------------------------------------------------------------------------------------------------------------------------------------


*Resource Productivity
 Growing season length: 115 days 

 Precipitation during growing season       235.2 mm[rain]
   Dry Matter Productivity                  3.36 kg[DM]/m3[rain]          =   33.6 kg[DM]/ha per mm[rain]
   Yield Productivity                       1.44 kg[grain yield]/m3[rain] =   14.4 kg[yield]/ha per mm[rain]

 Evapotranspiration during growing season  213.4 mm[ET]
   Dry Matter Productivity                  3.70 kg[DM]/m3[ET]            =   37.0 kg[DM]/ha per mm[ET]
   Yield Productivity                       1.59 kg[grain yield]/m3[ET]   =   15.9 kg[yield]/ha per mm[ET]

 Transpiration during growing season       138.1 mm[EP]
   Dry Matter Productivity                  5.71 kg[DM]/m3[EP]            =   57.1 kg[DM]/ha per mm[EP]
   Yield Productivity                       2.46 kg[grain yield]/m3[EP]   =   24.6 kg[yield]/ha per mm[EP]

 N applied during growing season            162. kg[N applied]/ha
   Dry Matter Productivity                  48.7 kg[DM]/kg[N applied]
   Yield Productivity                       21.0 kg[yield]/kg[N applied]

 N uptake during growing season               98 kg[N uptake]/ha
   Dry Matter Productivity                  80.5 kg[DM]/kg[N uptake]
   Yield Productivity                       34.7 kg[yield]/kg[N uptake]

--------------------------------------------------------------------------------------------------------------

                     Maize YIELD :     3396 kg/ha    [Dry weight] 

**************************************************************************************************************

*DSSAT Cropping System Model Ver. 4.6.1.000 -release      OCT 24, 2017; 11:02:43
                                                                                
*RUN   3        : P07/24                    MZCER046 ANES2009    3              
 MODEL          : MZCER046 - Maize                                              
 EXPERIMENT     : ANES2009 MZ  MZ Analisis a침os de bajo rendimiento Espinal    
 DATA PATH      : C:\DSSAT46\maize\                                             
 TREATMENT  3   : P07/24                    MZCER046                            
                                                                                
                                                                                
 CROP           : Maize            CULTIVAR : DK234            ECOTYPE :IB0001  
 STARTING DATE  : JUN 24 2009                                                   
 PLANTING DATE  : JUL 24 2009        PLANTS/m2 :  6.2     ROW SPACING :  80.cm  
 WEATHER        : CNAT   2009                                                   
 SOIL           : CCESPI2017     TEXTURE : SL    -   Suelo Espinal Calibraci    
 SOIL INITIAL C : DEPTH:100cm EXTR. H2O: 83.6mm  NO3:  0.0kg/ha  NH4:  0.0kg/ha 
 WATER BALANCE  : RAINFED                                                       
 IRRIGATION     : NOT IRRIGATED                                                 
 NITROGEN BAL.  : SOIL-N & N-UPTAKE SIMULATION; NO N-FIXATION                   
 N-FERTILIZER   :      162 kg/ha IN     6 APPLICATIONS                          
 RESIDUE/MANURE : INITIAL :     0 kg/ha ;       0 kg/ha IN     0 APPLICATIONS   
 ENVIRONM. OPT. : DAYL=    0.00  SRAD=    0.00  TMAX=    0.00  TMIN=    0.00    
                  RAIN=    0.00  CO2 =    0.00  DEW =    0.00  WIND=    0.00    
 SIMULATION OPT : WATER   :Y  NITROGEN:Y  N-FIX:N  PHOSPH :N  PESTS  :N         
                  PHOTO   :C  ET      :R  INFIL:S  HYDROL :R  SOM    :G         
                  CO2 387ppm  NSWIT   :1  EVAP :S  SOIL   :2  STEMP  :D         
 MANAGEMENT OPT : PLANTING:R  IRRIG   :N  FERT :D  RESIDUE:R  HARVEST:M         
                  WEATHER :M  TILLAGE :N                                        
                                                                                
*SUMMARY OF SOIL AND GENETIC INPUT PARAMETERS                                   
                                                                                
   SOIL LOWER UPPER   SAT  EXTR  INIT   ROOT   BULK     pH    NO3    NH4    ORG 
  DEPTH LIMIT LIMIT    SW    SW    SW   DIST   DENS                          C  
   cm   cm3/cm3    cm3/cm3    cm3/cm3         g/cm3         ugN/g  ugN/g     %  
------------------------------------------------------------------------------- 
  0-  5 0.160 0.252 0.376 0.092 0.252   1.00   1.69   6.60   0.00   0.00   0.45 
  5- 15 0.160 0.252 0.376 0.092 0.252   1.00   1.69   6.60   0.00   0.00   0.45 
 15- 30 0.160 0.252 0.376 0.092 0.252   1.00   1.69   6.60   0.00   0.00   0.45 
 30- 53 0.120 0.200 0.440 0.080 0.200   0.27   1.40   7.10   0.00   0.00   0.17 
 53- 77 0.120 0.200 0.440 0.080 0.200   0.27   1.40   7.10   0.00   0.00   0.17 
 77-100 0.120 0.200 0.440 0.080 0.200   0.27   1.40   7.10   0.00   0.00   0.17 
                                                                                
TOT-100  13.2  21.6  42.1   8.4  21.6  <--cm   -  kg/ha-->    0.0    0.0  39475 
SOIL ALBEDO    : 0.09      EVAPORATION LIMIT : 6.00         MIN. FACTOR  : 1.00 
RUNOFF CURVE # :76.00      DRAINAGE RATE     : 0.60         FERT. FACTOR : 1.00 
                                                                                
 Maize      CULTIVAR :CI0002-DK234              ECOTYPE :IB0001                 
 P1     : 300.00  P2     : 0.4000  P5     :1075.00                              
 G2     : 890.00  G3     :  7.750  PHINT  : 40.000                              


*SIMULATED CROP AND SOIL STATUS AT MAIN DEVELOPMENT STAGES

 RUN NO.     3     P07/24                  

        CROP GROWTH     BIOMASS         LEAF   CROP N     STRESS      STRESS                                           
   DATE  AGE STAGE        kg/ha    LAI   NUM  kg/ha  %   H2O  Nitr Phos1 Phos2  RSTG                                   
 ------  --- ----------   -----  -----  ----  ---  ---  ----  ----  ----  ----  ----                                   
 24 JUN    0 Start Sim        0   0.00   0.0    0  0.0  0.00  0.00  0.00  0.00     7
 24 JUL    0 Sowing           0   0.00   0.0    0  0.0  0.00  0.00  0.00  0.00     8
 25 JUL    1 Germinate        0   0.00   0.0    0  0.0  0.00  0.00  0.00  0.00     9
 29 JUL    5 Emergence       25   0.00   2.3    1  4.4  0.00  0.01  0.00  0.00     1
 12 AUG   19 End Juveni     299   0.53  10.3    6  2.0  0.14  0.10  0.00  0.00     2
 19 AUG   26 Floral Ini     643   0.90  14.0   25  3.9  0.35  0.38  0.00  0.00     3
 22 SEP   60 75% Silkin    4623   1.75  28.6   95  2.0  0.48  0.00  0.00  0.00     4
 30 SEP   68 Beg Gr Fil    5747   1.49  28.6   97  1.7  0.57  0.00  0.00  0.00     5
 12 NOV  111 End Gr Fil    8102   0.42  28.6  101  1.2  0.67  0.00  0.00  0.00     6
 14 NOV  113 Maturity      8102   0.42  28.6  101  1.2  0.00  0.00  0.00  0.00    10
 14 NOV  113 Harvest       8102   0.42  28.6  101  1.2  0.00  0.00  0.00  0.00    10


*MAIN GROWTH AND DEVELOPMENT VARIABLES

@     VARIABLE                                         SIMULATED     MEASURED
      --------                                         ---------     --------
      Anthesis day (dap)                                      60          -99
      Physiological maturity day (dap)                       113          -99
      Yield at harvest maturity (kg [dm]/ha)                3534          -99
      Number at maturity (no/m2)                            2061          -99
      Unit wt at maturity (g [dm]/unit)                   0.1715          -99
      Number at maturity (no/unit)                         332.4          -99
      Tops weight at maturity (kg [dm]/ha)                  8102          -99
      By-product produced (stalk) at maturity (kg[dm]/ha    4620          -99
      Leaf area index, maximum                              1.75          -99
      Harvest index at maturity                            0.436          -99
      Grain N at maturity (kg/ha)                             65          -99
      Tops N at maturity (kg/ha)                             101          -99
      Stem N at maturity (kg/ha)                              36          -99
      Grain N at maturity (%)                                1.8          -99
      Tops weight at anthesis (kg [dm]/ha)                  4425          -99
      Tops N at anthesis (kg/ha)                              94          -99
      Leaf number per stem at maturity                     28.63          -99
      Emergence day (dap)                                      5          -99


*ENVIRONMENTAL AND STRESS FACTORS

 |-----Development Phase------|--------------------------------------Environment--------------------------------------|-----------------Stress-----------------|
                              |---------------Average--------------|-----Cumulative-----|--------Count of days--------|          (0=Min, 1=Max Stress)         |
                         Time  Temp  Temp  Temp Solar Photop                Evapo    Pot TMIN TMIN TMAX TMAX TMAX RAIN|----Water----|---Nitrogen--|-Phosphorus-|
                         Span   Max   Min  Mean   Rad  [day]    CO2   Rain  Trans     ET   <    <    >    >    >    >   Photo         Photo         Photo
                         days    邂    邂    邂 MJ/m2     hr    ppm     mm     mm     mm  0邂  2邂 30邂 32邂 34邂  0mm  synth Growth  synth Growth  synth Growth
----------------------------------------------------------------------------------------------------------------------------------------------------------------
 Emergence-End Juvenile    14  34.8  22.1  28.4  18.9  24.00  387.5    0.0    9.1   77.8    0    0   14   12   12    0  0.018  0.094  0.025  0.062  0.000  0.000
 End Juvenil-Floral Init    7  34.5  22.7  28.6  19.3  24.00  387.6    9.7   13.9   38.9    0    0    7    6    4    2  0.139  0.331  0.259  0.454  0.000  0.000
 Floral Init-End Lf Grow   34  34.8  22.0  28.4  20.7  18.62  387.7  174.9   97.9  193.6    0    0   33   31   22   10  0.435  0.506  0.000  0.000  0.000  0.000
 End Lf Grth-Beg Grn Fil    8  36.0  22.1  29.0  22.0  10.37  387.9    0.0   28.0   49.7    0    0    8    8    7    0  0.317  0.475  0.000  0.000  0.000  0.000
 Grain Filling Phase       43  34.2  22.3  28.2  19.2   1.91  388.0   52.4   68.4  231.6    0    0   42   35   22   16  0.595  0.683  0.000  0.000  0.000  0.000


 Planting to Harvest      113  34.6  22.1  28.4  19.7  12.58  387.8  237.0  222.1  628.5    0    0  110   98   72   28  0.390  0.478  0.019  0.036  0.000  0.000
----------------------------------------------------------------------------------------------------------------------------------------------------------------


*Resource Productivity
 Growing season length: 113 days 

 Precipitation during growing season       237.0 mm[rain]
   Dry Matter Productivity                  3.42 kg[DM]/m3[rain]          =   34.2 kg[DM]/ha per mm[rain]
   Yield Productivity                       1.49 kg[grain yield]/m3[rain] =   14.9 kg[yield]/ha per mm[rain]

 Evapotranspiration during growing season  222.1 mm[ET]
   Dry Matter Productivity                  3.65 kg[DM]/m3[ET]            =   36.5 kg[DM]/ha per mm[ET]
   Yield Productivity                       1.59 kg[grain yield]/m3[ET]   =   15.9 kg[yield]/ha per mm[ET]

 Transpiration during growing season       143.3 mm[EP]
   Dry Matter Productivity                  5.65 kg[DM]/m3[EP]            =   56.5 kg[DM]/ha per mm[EP]
   Yield Productivity                       2.47 kg[grain yield]/m3[EP]   =   24.7 kg[yield]/ha per mm[EP]

 N applied during growing season            162. kg[N applied]/ha
   Dry Matter Productivity                  50.0 kg[DM]/kg[N applied]
   Yield Productivity                       21.8 kg[yield]/kg[N applied]

 N uptake during growing season              107 kg[N uptake]/ha
   Dry Matter Productivity                  75.7 kg[DM]/kg[N uptake]
   Yield Productivity                       33.0 kg[yield]/kg[N uptake]

--------------------------------------------------------------------------------------------------------------

                     Maize YIELD :     3534 kg/ha    [Dry weight] 

**************************************************************************************************************

*DSSAT Cropping System Model Ver. 4.6.1.000 -release      OCT 24, 2017; 11:02:43
                                                                                
*RUN   4        : P07/29                    MZCER046 ANES2009    4              
 MODEL          : MZCER046 - Maize                                              
 EXPERIMENT     : ANES2009 MZ  MZ Analisis a침os de bajo rendimiento Espinal    
 DATA PATH      : C:\DSSAT46\maize\                                             
 TREATMENT  4   : P07/29                    MZCER046                            
                                                                                
                                                                                
 CROP           : Maize            CULTIVAR : DK234            ECOTYPE :IB0001  
 STARTING DATE  : JUN 29 2009                                                   
 PLANTING DATE  : JUL 29 2009        PLANTS/m2 :  6.2     ROW SPACING :  80.cm  
 WEATHER        : CNAT   2009                                                   
 SOIL           : CCESPI2017     TEXTURE : SL    -   Suelo Espinal Calibraci    
 SOIL INITIAL C : DEPTH:100cm EXTR. H2O: 83.6mm  NO3:  0.0kg/ha  NH4:  0.0kg/ha 
 WATER BALANCE  : RAINFED                                                       
 IRRIGATION     : NOT IRRIGATED                                                 
 NITROGEN BAL.  : SOIL-N & N-UPTAKE SIMULATION; NO N-FIXATION                   
 N-FERTILIZER   :      162 kg/ha IN     6 APPLICATIONS                          
 RESIDUE/MANURE : INITIAL :     0 kg/ha ;       0 kg/ha IN     0 APPLICATIONS   
 ENVIRONM. OPT. : DAYL=    0.00  SRAD=    0.00  TMAX=    0.00  TMIN=    0.00    
                  RAIN=    0.00  CO2 =    0.00  DEW =    0.00  WIND=    0.00    
 SIMULATION OPT : WATER   :Y  NITROGEN:Y  N-FIX:N  PHOSPH :N  PESTS  :N         
                  PHOTO   :C  ET      :R  INFIL:S  HYDROL :R  SOM    :G         
                  CO2 387ppm  NSWIT   :1  EVAP :S  SOIL   :2  STEMP  :D         
 MANAGEMENT OPT : PLANTING:R  IRRIG   :N  FERT :D  RESIDUE:R  HARVEST:M         
                  WEATHER :M  TILLAGE :N                                        
                                                                                
*SUMMARY OF SOIL AND GENETIC INPUT PARAMETERS                                   
                                                                                
   SOIL LOWER UPPER   SAT  EXTR  INIT   ROOT   BULK     pH    NO3    NH4    ORG 
  DEPTH LIMIT LIMIT    SW    SW    SW   DIST   DENS                          C  
   cm   cm3/cm3    cm3/cm3    cm3/cm3         g/cm3         ugN/g  ugN/g     %  
------------------------------------------------------------------------------- 
  0-  5 0.160 0.252 0.376 0.092 0.252   1.00   1.69   6.60   0.00   0.00   0.45 
  5- 15 0.160 0.252 0.376 0.092 0.252   1.00   1.69   6.60   0.00   0.00   0.45 
 15- 30 0.160 0.252 0.376 0.092 0.252   1.00   1.69   6.60   0.00   0.00   0.45 
 30- 53 0.120 0.200 0.440 0.080 0.200   0.27   1.40   7.10   0.00   0.00   0.17 
 53- 77 0.120 0.200 0.440 0.080 0.200   0.27   1.40   7.10   0.00   0.00   0.17 
 77-100 0.120 0.200 0.440 0.080 0.200   0.27   1.40   7.10   0.00   0.00   0.17 
                                                                                
TOT-100  13.2  21.6  42.1   8.4  21.6  <--cm   -  kg/ha-->    0.0    0.0  39475 
SOIL ALBEDO    : 0.09      EVAPORATION LIMIT : 6.00         MIN. FACTOR  : 1.00 
RUNOFF CURVE # :76.00      DRAINAGE RATE     : 0.60         FERT. FACTOR : 1.00 
                                                                                
 Maize      CULTIVAR :CI0002-DK234              ECOTYPE :IB0001                 
 P1     : 300.00  P2     : 0.4000  P5     :1075.00                              
 G2     : 890.00  G3     :  7.750  PHINT  : 40.000                              


*SIMULATED CROP AND SOIL STATUS AT MAIN DEVELOPMENT STAGES

 RUN NO.     4     P07/29                  

        CROP GROWTH     BIOMASS         LEAF   CROP N     STRESS      STRESS                                           
   DATE  AGE STAGE        kg/ha    LAI   NUM  kg/ha  %   H2O  Nitr Phos1 Phos2  RSTG                                   
 ------  --- ----------   -----  -----  ----  ---  ---  ----  ----  ----  ----  ----                                   
 29 JUN    0 Start Sim        0   0.00   0.0    0  0.0  0.00  0.00  0.00  0.00     7
 29 JUL    0 Sowing           0   0.00   0.0    0  0.0  0.00  0.00  0.00  0.00     8
 30 JUL    1 Germinate        0   0.00   0.0    0  0.0  0.00  0.00  0.00  0.00     9
  3 AUG    5 Emergence       25   0.01   2.3    1  4.4  0.00  0.01  0.00  0.00     1
 17 AUG   19 End Juveni     352   0.63  10.3   11  3.2  0.08  0.05  0.00  0.00     2
 24 AUG   26 Floral Ini     778   1.14  13.9   28  3.6  0.46  0.00  0.00  0.00     3
 27 SEP   60 75% Silkin    5558   2.24  28.5  114  2.1  0.45  0.00  0.00  0.00     4
  5 OCT   68 Beg Gr Fil    6031   1.73  28.5  114  1.9  0.76  0.00  0.00  0.00     5
 17 NOV  111 End Gr Fil    8306   0.51  28.5  114  1.4  0.65  0.00  0.00  0.00     6
 19 NOV  113 Maturity      8306   0.51  28.5  114  1.4  0.83  0.00  0.00  0.00    10
 19 NOV  113 Harvest       8306   0.51  28.5  114  1.4  0.00  0.00  0.00  0.00    10


*MAIN GROWTH AND DEVELOPMENT VARIABLES

@     VARIABLE                                         SIMULATED     MEASURED
      --------                                         ---------     --------
      Anthesis day (dap)                                      60          -99
      Physiological maturity day (dap)                       113          -99
      Yield at harvest maturity (kg [dm]/ha)                2657          -99
      Number at maturity (no/m2)                            1342          -99
      Unit wt at maturity (g [dm]/unit)                   0.1981          -99
      Number at maturity (no/unit)                         216.4          -99
      Tops weight at maturity (kg [dm]/ha)                  8306          -99
      By-product produced (stalk) at maturity (kg[dm]/ha    5709          -99
      Leaf area index, maximum                              2.31          -99
      Harvest index at maturity                            0.320          -99
      Grain N at maturity (kg/ha)                             49          -99
      Tops N at maturity (kg/ha)                             114          -99
      Stem N at maturity (kg/ha)                              65          -99
      Grain N at maturity (%)                                1.8          -99
      Tops weight at anthesis (kg [dm]/ha)                  5410          -99
      Tops N at anthesis (kg/ha)                             112          -99
      Leaf number per stem at maturity                     28.53          -99
      Emergence day (dap)                                      5          -99


*ENVIRONMENTAL AND STRESS FACTORS

 |-----Development Phase------|--------------------------------------Environment--------------------------------------|-----------------Stress-----------------|
                              |---------------Average--------------|-----Cumulative-----|--------Count of days--------|          (0=Min, 1=Max Stress)         |
                         Time  Temp  Temp  Temp Solar Photop                Evapo    Pot TMIN TMIN TMAX TMAX TMAX RAIN|----Water----|---Nitrogen--|-Phosphorus-|
                         Span   Max   Min  Mean   Rad  [day]    CO2   Rain  Trans     ET   <    <    >    >    >    >   Photo         Photo         Photo
                         days    邂    邂    邂 MJ/m2     hr    ppm     mm     mm     mm  0邂  2邂 30邂 32邂 34邂  0mm  synth Growth  synth Growth  synth Growth
----------------------------------------------------------------------------------------------------------------------------------------------------------------
 Emergence-End Juvenile    14  34.7  22.4  28.6  18.6  24.00  387.5    9.7   10.3   76.6    0    0   14   12   11    2  0.000  0.082  0.019  0.047  0.000  0.000
 End Juvenil-Floral Init    7  33.7  22.7  28.2  18.1  24.00  387.7   25.0   15.7   35.0    0    0    7    6    3    3  0.261  0.460  0.001  0.001  0.000  0.000
 Floral Init-End Lf Grow   34  35.1  21.9  28.5  21.3  16.69  387.7  149.9  115.6  198.1    0    0   33   31   23    7  0.354  0.436  0.000  0.000  0.000  0.000
 End Lf Grth-Beg Grn Fil    8  36.4  22.6  29.5  21.4   8.56  387.9    0.4   16.5   48.6    0    0    8    8    8    1  0.617  0.745  0.000  0.000  0.000  0.000
 Grain Filling Phase       43  33.7  22.3  28.0  18.5   0.97  388.0   52.5   71.6  218.9    0    0   41   34   18   16  0.573  0.654  0.000  0.000  0.000  0.000


 Planting to Harvest      113  34.5  22.2  28.4  19.6  11.52  387.8  237.9  232.6  618.7    0    0  110   97   68   30  0.397  0.485  0.002  0.006  0.000  0.000
----------------------------------------------------------------------------------------------------------------------------------------------------------------


*Resource Productivity
 Growing season length: 113 days 

 Precipitation during growing season       237.9 mm[rain]
   Dry Matter Productivity                  3.49 kg[DM]/m3[rain]          =   34.9 kg[DM]/ha per mm[rain]
   Yield Productivity                       1.12 kg[grain yield]/m3[rain] =   11.2 kg[yield]/ha per mm[rain]

 Evapotranspiration during growing season  232.6 mm[ET]
   Dry Matter Productivity                  3.57 kg[DM]/m3[ET]            =   35.7 kg[DM]/ha per mm[ET]
   Yield Productivity                       1.14 kg[grain yield]/m3[ET]   =   11.4 kg[yield]/ha per mm[ET]

 Transpiration during growing season       154.9 mm[EP]
   Dry Matter Productivity                  5.36 kg[DM]/m3[EP]            =   53.6 kg[DM]/ha per mm[EP]
   Yield Productivity                       1.72 kg[grain yield]/m3[EP]   =   17.2 kg[yield]/ha per mm[EP]

 N applied during growing season            162. kg[N applied]/ha
   Dry Matter Productivity                  51.3 kg[DM]/kg[N applied]
   Yield Productivity                       16.4 kg[yield]/kg[N applied]

 N uptake during growing season              125 kg[N uptake]/ha
   Dry Matter Productivity                  66.4 kg[DM]/kg[N uptake]
   Yield Productivity                       21.3 kg[yield]/kg[N uptake]

--------------------------------------------------------------------------------------------------------------

                     Maize YIELD :     2657 kg/ha    [Dry weight] 

**************************************************************************************************************

*DSSAT Cropping System Model Ver. 4.6.1.000 -release      OCT 24, 2017; 11:02:43
                                                                                
*RUN   5        : P08/03                    MZCER046 ANES2009    5              
 MODEL          : MZCER046 - Maize                                              
 EXPERIMENT     : ANES2009 MZ  MZ Analisis a침os de bajo rendimiento Espinal    
 DATA PATH      : C:\DSSAT46\maize\                                             
 TREATMENT  5   : P08/03                    MZCER046                            
                                                                                
                                                                                
 CROP           : Maize            CULTIVAR : DK234            ECOTYPE :IB0001  
 STARTING DATE  : JUL  4 2009                                                   
 PLANTING DATE  : AUG  3 2009        PLANTS/m2 :  6.2     ROW SPACING :  80.cm  
 WEATHER        : CNAT   2009                                                   
 SOIL           : CCESPI2017     TEXTURE : SL    -   Suelo Espinal Calibraci    
 SOIL INITIAL C : DEPTH:100cm EXTR. H2O: 83.6mm  NO3:  0.0kg/ha  NH4:  0.0kg/ha 
 WATER BALANCE  : RAINFED                                                       
 IRRIGATION     : NOT IRRIGATED                                                 
 NITROGEN BAL.  : SOIL-N & N-UPTAKE SIMULATION; NO N-FIXATION                   
 N-FERTILIZER   :      162 kg/ha IN     6 APPLICATIONS                          
 RESIDUE/MANURE : INITIAL :     0 kg/ha ;       0 kg/ha IN     0 APPLICATIONS   
 ENVIRONM. OPT. : DAYL=    0.00  SRAD=    0.00  TMAX=    0.00  TMIN=    0.00    
                  RAIN=    0.00  CO2 =    0.00  DEW =    0.00  WIND=    0.00    
 SIMULATION OPT : WATER   :Y  NITROGEN:Y  N-FIX:N  PHOSPH :N  PESTS  :N         
                  PHOTO   :C  ET      :R  INFIL:S  HYDROL :R  SOM    :G         
                  CO2 387ppm  NSWIT   :1  EVAP :S  SOIL   :2  STEMP  :D         
 MANAGEMENT OPT : PLANTING:R  IRRIG   :N  FERT :D  RESIDUE:R  HARVEST:M         
                  WEATHER :M  TILLAGE :N                                        
                                                                                
*SUMMARY OF SOIL AND GENETIC INPUT PARAMETERS                                   
                                                                                
   SOIL LOWER UPPER   SAT  EXTR  INIT   ROOT   BULK     pH    NO3    NH4    ORG 
  DEPTH LIMIT LIMIT    SW    SW    SW   DIST   DENS                          C  
   cm   cm3/cm3    cm3/cm3    cm3/cm3         g/cm3         ugN/g  ugN/g     %  
------------------------------------------------------------------------------- 
  0-  5 0.160 0.252 0.376 0.092 0.252   1.00   1.69   6.60   0.00   0.00   0.45 
  5- 15 0.160 0.252 0.376 0.092 0.252   1.00   1.69   6.60   0.00   0.00   0.45 
 15- 30 0.160 0.252 0.376 0.092 0.252   1.00   1.69   6.60   0.00   0.00   0.45 
 30- 53 0.120 0.200 0.440 0.080 0.200   0.27   1.40   7.10   0.00   0.00   0.17 
 53- 77 0.120 0.200 0.440 0.080 0.200   0.27   1.40   7.10   0.00   0.00   0.17 
 77-100 0.120 0.200 0.440 0.080 0.200   0.27   1.40   7.10   0.00   0.00   0.17 
                                                                                
TOT-100  13.2  21.6  42.1   8.4  21.6  <--cm   -  kg/ha-->    0.0    0.0  39475 
SOIL ALBEDO    : 0.09      EVAPORATION LIMIT : 6.00         MIN. FACTOR  : 1.00 
RUNOFF CURVE # :76.00      DRAINAGE RATE     : 0.60         FERT. FACTOR : 1.00 
                                                                                
 Maize      CULTIVAR :CI0002-DK234              ECOTYPE :IB0001                 
 P1     : 300.00  P2     : 0.4000  P5     :1075.00                              
 G2     : 890.00  G3     :  7.750  PHINT  : 40.000                              


*SIMULATED CROP AND SOIL STATUS AT MAIN DEVELOPMENT STAGES

 RUN NO.     5     P08/03                  

        CROP GROWTH     BIOMASS         LEAF   CROP N     STRESS      STRESS                                           
   DATE  AGE STAGE        kg/ha    LAI   NUM  kg/ha  %   H2O  Nitr Phos1 Phos2  RSTG                                   
 ------  --- ----------   -----  -----  ----  ---  ---  ----  ----  ----  ----  ----                                   
  4 JUL    0 Start Sim        0   0.00   0.0    0  0.0  0.00  0.00  0.00  0.00     7
  3 AUG    0 Sowing           0   0.00   0.0    0  0.0  0.00  0.00  0.00  0.00     8
  4 AUG    1 Germinate        0   0.00   0.0    0  0.0  0.00  0.00  0.00  0.00     9
  8 AUG    5 Emergence       25   0.00   2.2    1  4.4  0.00  0.01  0.00  0.00     1
 22 AUG   19 End Juveni     323   0.59  10.3   10  3.1  0.13  0.00  0.00  0.00     2
 28 AUG   25 Floral Ini     864   1.30  13.2   30  3.5  0.16  0.00  0.00  0.00     3
 29 SEP   57 75% Silkin    5036   2.11  27.0  106  2.1  0.51  0.00  0.00  0.00     4
  7 OCT   65 Beg Gr Fil    5452   1.60  27.0  106  1.9  0.78  0.00  0.00  0.00     5
 19 NOV  108 End Gr Fil    7526   0.46  27.0  106  1.4  0.66  0.00  0.00  0.00     6
 22 NOV  111 Maturity      7526   0.46  27.0  106  1.4  0.86  0.00  0.00  0.00    10
 22 NOV  111 Harvest       7526   0.46  27.0  106  1.4  0.00  0.00  0.00  0.00    10


*MAIN GROWTH AND DEVELOPMENT VARIABLES

@     VARIABLE                                         SIMULATED     MEASURED
      --------                                         ---------     --------
      Anthesis day (dap)                                      57          -99
      Physiological maturity day (dap)                       111          -99
      Yield at harvest maturity (kg [dm]/ha)                2432          -99
      Number at maturity (no/m2)                            1225          -99
      Unit wt at maturity (g [dm]/unit)                   0.1986          -99
      Number at maturity (no/unit)                         197.5          -99
      Tops weight at maturity (kg [dm]/ha)                  7526          -99
      By-product produced (stalk) at maturity (kg[dm]/ha    5150          -99
      Leaf area index, maximum                              2.18          -99
      Harvest index at maturity                            0.323          -99
      Grain N at maturity (kg/ha)                             45          -99
      Tops N at maturity (kg/ha)                             106          -99
      Stem N at maturity (kg/ha)                              62          -99
      Grain N at maturity (%)                                1.8          -99
      Tops weight at anthesis (kg [dm]/ha)                  4920          -99
      Tops N at anthesis (kg/ha)                             104          -99
      Leaf number per stem at maturity                     27.01          -99
      Emergence day (dap)                                      5          -99


*ENVIRONMENTAL AND STRESS FACTORS

 |-----Development Phase------|--------------------------------------Environment--------------------------------------|-----------------Stress-----------------|
                              |---------------Average--------------|-----Cumulative-----|--------Count of days--------|          (0=Min, 1=Max Stress)         |
                         Time  Temp  Temp  Temp Solar Photop                Evapo    Pot TMIN TMIN TMAX TMAX TMAX RAIN|----Water----|---Nitrogen--|-Phosphorus-|
                         Span   Max   Min  Mean   Rad  [day]    CO2   Rain  Trans     ET   <    <    >    >    >    >   Photo         Photo         Photo
                         days    邂    邂    邂 MJ/m2     hr    ppm     mm     mm     mm  0邂  2邂 30邂 32邂 34邂  0mm  synth Growth  synth Growth  synth Growth
----------------------------------------------------------------------------------------------------------------------------------------------------------------
 Emergence-End Juvenile    14  34.2  22.6  28.4  18.1  24.00  387.6   13.2   12.2   74.8    0    0   14   12    8    4  0.038  0.120  0.002  0.006  0.000  0.000
 End Juvenil-Floral Init    6  33.4  20.8  27.1  21.1  24.00  387.7   21.5   22.2   34.6    0    0    5    5    3    1  0.117  0.161  0.000  0.001  0.000  0.000
 Floral Init-End Lf Grow   32  35.4  22.1  28.7  21.3  15.34  387.8  149.9  103.1  189.2    0    0   32   30   24    7  0.389  0.489  0.001  0.001  0.000  0.000
 End Lf Grth-Beg Grn Fil    8  36.4  22.8  29.6  21.7   7.79  387.9    0.4   15.0   49.5    0    0    8    8    7    1  0.661  0.774  0.000  0.000  0.000  0.000
 Grain Filling Phase       43  33.6  22.3  27.9  18.3   0.67  388.1   52.9   69.5  216.5    0    0   41   33   17   17  0.583  0.660  0.000  0.000  0.000  0.000


 Planting to Harvest      111  34.4  22.3  28.3  19.5  10.65  387.9  239.5  225.2  605.3    0    0  108   95   64   31  0.418  0.500  0.000  0.001  0.000  0.000
----------------------------------------------------------------------------------------------------------------------------------------------------------------


*Resource Productivity
 Growing season length: 111 days 

 Precipitation during growing season       239.5 mm[rain]
   Dry Matter Productivity                  3.14 kg[DM]/m3[rain]          =   31.4 kg[DM]/ha per mm[rain]
   Yield Productivity                       1.02 kg[grain yield]/m3[rain] =   10.2 kg[yield]/ha per mm[rain]

 Evapotranspiration during growing season  225.2 mm[ET]
   Dry Matter Productivity                  3.34 kg[DM]/m3[ET]            =   33.4 kg[DM]/ha per mm[ET]
   Yield Productivity                       1.08 kg[grain yield]/m3[ET]   =   10.8 kg[yield]/ha per mm[ET]

 Transpiration during growing season       140.5 mm[EP]
   Dry Matter Productivity                  5.36 kg[DM]/m3[EP]            =   53.6 kg[DM]/ha per mm[EP]
   Yield Productivity                       1.73 kg[grain yield]/m3[EP]   =   17.3 kg[yield]/ha per mm[EP]

 N applied during growing season            162. kg[N applied]/ha
   Dry Matter Productivity                  46.5 kg[DM]/kg[N applied]
   Yield Productivity                       15.0 kg[yield]/kg[N applied]

 N uptake during growing season              115 kg[N uptake]/ha
   Dry Matter Productivity                  65.4 kg[DM]/kg[N uptake]
   Yield Productivity                       21.1 kg[yield]/kg[N uptake]

--------------------------------------------------------------------------------------------------------------

                     Maize YIELD :     2432 kg/ha    [Dry weight] 

**************************************************************************************************************

*DSSAT Cropping System Model Ver. 4.6.1.000 -release      OCT 24, 2017; 11:02:43
                                                                                
*RUN   6        : P08/08                    MZCER046 ANES2009    6              
 MODEL          : MZCER046 - Maize                                              
 EXPERIMENT     : ANES2009 MZ  MZ Analisis a침os de bajo rendimiento Espinal    
 DATA PATH      : C:\DSSAT46\maize\                                             
 TREATMENT  6   : P08/08                    MZCER046                            
                                                                                
                                                                                
 CROP           : Maize            CULTIVAR : DK234            ECOTYPE :IB0001  
 STARTING DATE  : JUL  9 2009                                                   
 PLANTING DATE  : AUG  8 2009        PLANTS/m2 :  6.2     ROW SPACING :  80.cm  
 WEATHER        : CNAT   2009                                                   
 SOIL           : CCESPI2017     TEXTURE : SL    -   Suelo Espinal Calibraci    
 SOIL INITIAL C : DEPTH:100cm EXTR. H2O: 83.6mm  NO3:  0.0kg/ha  NH4:  0.0kg/ha 
 WATER BALANCE  : RAINFED                                                       
 IRRIGATION     : NOT IRRIGATED                                                 
 NITROGEN BAL.  : SOIL-N & N-UPTAKE SIMULATION; NO N-FIXATION                   
 N-FERTILIZER   :      162 kg/ha IN     6 APPLICATIONS                          
 RESIDUE/MANURE : INITIAL :     0 kg/ha ;       0 kg/ha IN     0 APPLICATIONS   
 ENVIRONM. OPT. : DAYL=    0.00  SRAD=    0.00  TMAX=    0.00  TMIN=    0.00    
                  RAIN=    0.00  CO2 =    0.00  DEW =    0.00  WIND=    0.00    
 SIMULATION OPT : WATER   :Y  NITROGEN:Y  N-FIX:N  PHOSPH :N  PESTS  :N         
                  PHOTO   :C  ET      :R  INFIL:S  HYDROL :R  SOM    :G         
                  CO2 387ppm  NSWIT   :1  EVAP :S  SOIL   :2  STEMP  :D         
 MANAGEMENT OPT : PLANTING:R  IRRIG   :N  FERT :D  RESIDUE:R  HARVEST:M         
                  WEATHER :M  TILLAGE :N                                        
                                                                                
*SUMMARY OF SOIL AND GENETIC INPUT PARAMETERS                                   
                                                                                
   SOIL LOWER UPPER   SAT  EXTR  INIT   ROOT   BULK     pH    NO3    NH4    ORG 
  DEPTH LIMIT LIMIT    SW    SW    SW   DIST   DENS                          C  
   cm   cm3/cm3    cm3/cm3    cm3/cm3         g/cm3         ugN/g  ugN/g     %  
------------------------------------------------------------------------------- 
  0-  5 0.160 0.252 0.376 0.092 0.252   1.00   1.69   6.60   0.00   0.00   0.45 
  5- 15 0.160 0.252 0.376 0.092 0.252   1.00   1.69   6.60   0.00   0.00   0.45 
 15- 30 0.160 0.252 0.376 0.092 0.252   1.00   1.69   6.60   0.00   0.00   0.45 
 30- 53 0.120 0.200 0.440 0.080 0.200   0.27   1.40   7.10   0.00   0.00   0.17 
 53- 77 0.120 0.200 0.440 0.080 0.200   0.27   1.40   7.10   0.00   0.00   0.17 
 77-100 0.120 0.200 0.440 0.080 0.200   0.27   1.40   7.10   0.00   0.00   0.17 
                                                                                
TOT-100  13.2  21.6  42.1   8.4  21.6  <--cm   -  kg/ha-->    0.0    0.0  39475 
SOIL ALBEDO    : 0.09      EVAPORATION LIMIT : 6.00         MIN. FACTOR  : 1.00 
RUNOFF CURVE # :76.00      DRAINAGE RATE     : 0.60         FERT. FACTOR : 1.00 
                                                                                
 Maize      CULTIVAR :CI0002-DK234              ECOTYPE :IB0001                 
 P1     : 300.00  P2     : 0.4000  P5     :1075.00                              
 G2     : 890.00  G3     :  7.750  PHINT  : 40.000                              


*SIMULATED CROP AND SOIL STATUS AT MAIN DEVELOPMENT STAGES

 RUN NO.     6     P08/08                  

        CROP GROWTH     BIOMASS         LEAF   CROP N     STRESS      STRESS                                           
   DATE  AGE STAGE        kg/ha    LAI   NUM  kg/ha  %   H2O  Nitr Phos1 Phos2  RSTG                                   
 ------  --- ----------   -----  -----  ----  ---  ---  ----  ----  ----  ----  ----                                   
  9 JUL    0 Start Sim        0   0.00   0.0    0  0.0  0.00  0.00  0.00  0.00     7
  8 AUG    0 Sowing           0   0.00   0.0    0  0.0  0.00  0.00  0.00  0.00     8
  9 AUG    1 Germinate        0   0.00   0.0    0  0.0  0.00  0.00  0.00  0.00     9
 13 AUG    5 Emergence       25   0.01   2.3    1  4.4  0.00  0.01  0.00  0.00     1
 27 AUG   19 End Juveni     348   0.62  10.2   11  3.1  0.10  0.00  0.00  0.00     2
  1 SEP   24 Floral Ini     711   1.06  12.8   26  3.7  0.32  0.00  0.00  0.00     3
  2 OCT   55 75% Silkin    4766   2.03  26.1   99  2.1  0.50  0.00  0.00  0.00     4
 10 OCT   63 Beg Gr Fil    5191   1.55  26.1   99  1.9  0.78  0.00  0.00  0.00     5
 22 NOV  106 End Gr Fil    7153   0.42  26.1   99  1.4  0.69  0.00  0.00  0.00     6
 25 NOV  109 Maturity      7153   0.42  26.1   99  1.4  0.32  0.00  0.00  0.00    10
 25 NOV  109 Harvest       7153   0.42  26.1   99  1.4  0.00  0.00  0.00  0.00    10


*MAIN GROWTH AND DEVELOPMENT VARIABLES

@     VARIABLE                                         SIMULATED     MEASURED
      --------                                         ---------     --------
      Anthesis day (dap)                                      55          -99
      Physiological maturity day (dap)                       109          -99
      Yield at harvest maturity (kg [dm]/ha)                2445          -99
      Number at maturity (no/m2)                            1255          -99
      Unit wt at maturity (g [dm]/unit)                   0.1949          -99
      Number at maturity (no/unit)                         202.3          -99
      Tops weight at maturity (kg [dm]/ha)                  7153          -99
      By-product produced (stalk) at maturity (kg[dm]/ha    4761          -99
      Leaf area index, maximum                              2.10          -99
      Harvest index at maturity                            0.342          -99
      Grain N at maturity (kg/ha)                             45          -99
      Tops N at maturity (kg/ha)                              99          -99
      Stem N at maturity (kg/ha)                              54          -99
      Grain N at maturity (%)                                1.8          -99
      Tops weight at anthesis (kg [dm]/ha)                  4610          -99
      Tops N at anthesis (kg/ha)                              98          -99
      Leaf number per stem at maturity                     26.09          -99
      Emergence day (dap)                                      5          -99


*ENVIRONMENTAL AND STRESS FACTORS

 |-----Development Phase------|--------------------------------------Environment--------------------------------------|-----------------Stress-----------------|
                              |---------------Average--------------|-----Cumulative-----|--------Count of days--------|          (0=Min, 1=Max Stress)         |
                         Time  Temp  Temp  Temp Solar Photop                Evapo    Pot TMIN TMIN TMAX TMAX TMAX RAIN|----Water----|---Nitrogen--|-Phosphorus-|
                         Span   Max   Min  Mean   Rad  [day]    CO2   Rain  Trans     ET   <    <    >    >    >    >   Photo         Photo         Photo
                         days    邂    邂    邂 MJ/m2     hr    ppm     mm     mm     mm  0邂  2邂 30邂 32邂 34邂  0mm  synth Growth  synth Growth  synth Growth
----------------------------------------------------------------------------------------------------------------------------------------------------------------
 Emergence-End Juvenile    14  33.7  22.5  28.1  18.6  24.00  387.6   34.7   24.0   76.5    0    0   13   12    6    5  0.041  0.099  0.002  0.005  0.000  0.000
 End Juvenil-Floral Init    5  34.7  21.8  28.2  21.3  22.71  387.7    0.8   14.1   29.5    0    0    5    5    4    1  0.061  0.165  0.000  0.001  0.000  0.000
 Floral Init-End Lf Grow   31  35.6  22.1  28.8  21.6  13.79  387.8  149.1   99.2  189.3    0    0   31   29   24    6  0.408  0.501  0.000  0.000  0.000  0.000
 End Lf Grth-Beg Grn Fil    8  36.1  23.1  29.6  20.5   6.52  387.9    0.4   14.9   46.3    0    0    8    8    7    1  0.623  0.749  0.000  0.000  0.000  0.000
 Grain Filling Phase       43  33.4  22.3  27.9  18.1   0.29  388.1   54.5   67.1  213.4    0    0   41   33   15   18  0.616  0.685  0.000  0.000  0.000  0.000


 Planting to Harvest      109  34.4  22.2  28.3  19.5   9.74  387.9  253.1  226.1  596.6    0    0  106   93   62   32  0.429  0.505  0.000  0.001  0.000  0.000
----------------------------------------------------------------------------------------------------------------------------------------------------------------


*Resource Productivity
 Growing season length: 109 days 

 Precipitation during growing season       253.1 mm[rain]
   Dry Matter Productivity                  2.83 kg[DM]/m3[rain]          =   28.3 kg[DM]/ha per mm[rain]
   Yield Productivity                       0.97 kg[grain yield]/m3[rain] =    9.7 kg[yield]/ha per mm[rain]

 Evapotranspiration during growing season  226.1 mm[ET]
   Dry Matter Productivity                  3.16 kg[DM]/m3[ET]            =   31.6 kg[DM]/ha per mm[ET]
   Yield Productivity                       1.08 kg[grain yield]/m3[ET]   =   10.8 kg[yield]/ha per mm[ET]

 Transpiration during growing season       134.5 mm[EP]
   Dry Matter Productivity                  5.32 kg[DM]/m3[EP]            =   53.2 kg[DM]/ha per mm[EP]
   Yield Productivity                       1.82 kg[grain yield]/m3[EP]   =   18.2 kg[yield]/ha per mm[EP]

 N applied during growing season            162. kg[N applied]/ha
   Dry Matter Productivity                  44.2 kg[DM]/kg[N applied]
   Yield Productivity                       15.1 kg[yield]/kg[N applied]

 N uptake during growing season              107 kg[N uptake]/ha
   Dry Matter Productivity                  66.9 kg[DM]/kg[N uptake]
   Yield Productivity                       22.9 kg[yield]/kg[N uptake]

--------------------------------------------------------------------------------------------------------------

                     Maize YIELD :     2445 kg/ha    [Dry weight] 

**************************************************************************************************************

*DSSAT Cropping System Model Ver. 4.6.1.000 -release      OCT 24, 2017; 11:02:43
                                                                                
*RUN   7        : P08/13                    MZCER046 ANES2009    7              
 MODEL          : MZCER046 - Maize                                              
 EXPERIMENT     : ANES2009 MZ  MZ Analisis a침os de bajo rendimiento Espinal    
 DATA PATH      : C:\DSSAT46\maize\                                             
 TREATMENT  7   : P08/13                    MZCER046                            
                                                                                
                                                                                
 CROP           : Maize            CULTIVAR : DK234            ECOTYPE :IB0001  
 STARTING DATE  : JUL 14 2009                                                   
 PLANTING DATE  : AUG 13 2009        PLANTS/m2 :  6.2     ROW SPACING :  80.cm  
 WEATHER        : CNAT   2009                                                   
 SOIL           : CCESPI2017     TEXTURE : SL    -   Suelo Espinal Calibraci    
 SOIL INITIAL C : DEPTH:100cm EXTR. H2O: 83.6mm  NO3:  0.0kg/ha  NH4:  0.0kg/ha 
 WATER BALANCE  : RAINFED                                                       
 IRRIGATION     : NOT IRRIGATED                                                 
 NITROGEN BAL.  : SOIL-N & N-UPTAKE SIMULATION; NO N-FIXATION                   
 N-FERTILIZER   :      162 kg/ha IN     6 APPLICATIONS                          
 RESIDUE/MANURE : INITIAL :     0 kg/ha ;       0 kg/ha IN     0 APPLICATIONS   
 ENVIRONM. OPT. : DAYL=    0.00  SRAD=    0.00  TMAX=    0.00  TMIN=    0.00    
                  RAIN=    0.00  CO2 =    0.00  DEW =    0.00  WIND=    0.00    
 SIMULATION OPT : WATER   :Y  NITROGEN:Y  N-FIX:N  PHOSPH :N  PESTS  :N         
                  PHOTO   :C  ET      :R  INFIL:S  HYDROL :R  SOM    :G         
                  CO2 387ppm  NSWIT   :1  EVAP :S  SOIL   :2  STEMP  :D         
 MANAGEMENT OPT : PLANTING:R  IRRIG   :N  FERT :D  RESIDUE:R  HARVEST:M         
                  WEATHER :M  TILLAGE :N                                        
                                                                                
*SUMMARY OF SOIL AND GENETIC INPUT PARAMETERS                                   
                                                                                
   SOIL LOWER UPPER   SAT  EXTR  INIT   ROOT   BULK     pH    NO3    NH4    ORG 
  DEPTH LIMIT LIMIT    SW    SW    SW   DIST   DENS                          C  
   cm   cm3/cm3    cm3/cm3    cm3/cm3         g/cm3         ugN/g  ugN/g     %  
------------------------------------------------------------------------------- 
  0-  5 0.160 0.252 0.376 0.092 0.252   1.00   1.69   6.60   0.00   0.00   0.45 
  5- 15 0.160 0.252 0.376 0.092 0.252   1.00   1.69   6.60   0.00   0.00   0.45 
 15- 30 0.160 0.252 0.376 0.092 0.252   1.00   1.69   6.60   0.00   0.00   0.45 
 30- 53 0.120 0.200 0.440 0.080 0.200   0.27   1.40   7.10   0.00   0.00   0.17 
 53- 77 0.120 0.200 0.440 0.080 0.200   0.27   1.40   7.10   0.00   0.00   0.17 
 77-100 0.120 0.200 0.440 0.080 0.200   0.27   1.40   7.10   0.00   0.00   0.17 
                                                                                
TOT-100  13.2  21.6  42.1   8.4  21.6  <--cm   -  kg/ha-->    0.0    0.0  39475 
SOIL ALBEDO    : 0.09      EVAPORATION LIMIT : 6.00         MIN. FACTOR  : 1.00 
RUNOFF CURVE # :76.00      DRAINAGE RATE     : 0.60         FERT. FACTOR : 1.00 
                                                                                
 Maize      CULTIVAR :CI0002-DK234              ECOTYPE :IB0001                 
 P1     : 300.00  P2     : 0.4000  P5     :1075.00                              
 G2     : 890.00  G3     :  7.750  PHINT  : 40.000                              


*SIMULATED CROP AND SOIL STATUS AT MAIN DEVELOPMENT STAGES

 RUN NO.     7     P08/13                  

        CROP GROWTH     BIOMASS         LEAF   CROP N     STRESS      STRESS                                           
   DATE  AGE STAGE        kg/ha    LAI   NUM  kg/ha  %   H2O  Nitr Phos1 Phos2  RSTG                                   
 ------  --- ----------   -----  -----  ----  ---  ---  ----  ----  ----  ----  ----                                   
 14 JUL    0 Start Sim        0   0.00   0.0    0  0.0  0.00  0.00  0.00  0.00     7
 13 AUG    0 Sowing           0   0.00   0.0    0  0.0  0.00  0.00  0.00  0.00     8
 14 AUG    1 Germinate        0   0.00   0.0    0  0.0  0.00  0.00  0.00  0.00     9
 18 AUG    5 Emergence       25   0.00   2.3    1  4.4  0.00  0.01  0.00  0.00     1
  1 SEP   19 End Juveni     333   0.60  10.2   12  3.5  0.06  0.00  0.00  0.00     2
  6 SEP   24 Floral Ini     636   0.97  12.8   23  3.6  0.43  0.00  0.00  0.00     3
  7 OCT   55 75% Silkin    4537   1.86  26.2   95  2.1  0.54  0.00  0.00  0.00     4
 15 OCT   63 Beg Gr Fil    5024   1.44  26.2   96  1.9  0.71  0.00  0.00  0.00     5
 27 NOV  106 End Gr Fil    7008   0.42  26.2   96  1.4  0.63  0.00  0.00  0.00     6
 30 NOV  109 Maturity      7008   0.42  26.2   96  1.4  0.14  0.00  0.00  0.00    10
 30 NOV  109 Harvest       7008   0.42  26.2   96  1.4  0.00  0.00  0.00  0.00    10


*MAIN GROWTH AND DEVELOPMENT VARIABLES

@     VARIABLE                                         SIMULATED     MEASURED
      --------                                         ---------     --------
      Anthesis day (dap)                                      55          -99
      Physiological maturity day (dap)                       109          -99
      Yield at harvest maturity (kg [dm]/ha)                2481          -99
      Number at maturity (no/m2)                            1241          -99
      Unit wt at maturity (g [dm]/unit)                   0.1999          -99
      Number at maturity (no/unit)                         200.2          -99
      Tops weight at maturity (kg [dm]/ha)                  7008          -99
      By-product produced (stalk) at maturity (kg[dm]/ha    4577          -99
      Leaf area index, maximum                              2.01          -99
      Harvest index at maturity                            0.354          -99
      Grain N at maturity (kg/ha)                             45          -99
      Tops N at maturity (kg/ha)                              96          -99
      Stem N at maturity (kg/ha)                              50          -99
      Grain N at maturity (%)                                1.8          -99
      Tops weight at anthesis (kg [dm]/ha)                  4438          -99
      Tops N at anthesis (kg/ha)                              95          -99
      Leaf number per stem at maturity                     26.16          -99
      Emergence day (dap)                                      5          -99


*ENVIRONMENTAL AND STRESS FACTORS

 |-----Development Phase------|--------------------------------------Environment--------------------------------------|-----------------Stress-----------------|
                              |---------------Average--------------|-----Cumulative-----|--------Count of days--------|          (0=Min, 1=Max Stress)         |
                         Time  Temp  Temp  Temp Solar Photop                Evapo    Pot TMIN TMIN TMAX TMAX TMAX RAIN|----Water----|---Nitrogen--|-Phosphorus-|
                         Span   Max   Min  Mean   Rad  [day]    CO2   Rain  Trans     ET   <    <    >    >    >    >   Photo         Photo         Photo
                         days    邂    邂    邂 MJ/m2     hr    ppm     mm     mm     mm  0邂  2邂 30邂 32邂 34邂  0mm  synth Growth  synth Growth  synth Growth
----------------------------------------------------------------------------------------------------------------------------------------------------------------
 Emergence-End Juvenile    14  33.9  21.9  27.9  19.6  23.54  387.7   25.8   31.7   79.8    0    0   13   13    7    4  0.000  0.034  0.002  0.005  0.000  0.000
 End Juvenil-Floral Init    5  35.4  22.2  28.8  21.8  18.90  387.7   12.5   12.6   32.2    0    0    5    4    4    1  0.324  0.482  0.000  0.000  0.000  0.000
 Floral Init-End Lf Grow   31  35.7  22.3  29.0  21.3  11.91  387.8  137.0   93.8  188.1    0    0   31   30   24    6  0.420  0.525  0.000  0.000  0.000  0.000
 End Lf Grth-Beg Grn Fil    8  34.8  22.4  28.6  19.3   3.59  387.9    8.5   14.9   42.7    0    0    8    6    5    1  0.586  0.688  0.000  0.000  0.000  0.000
 Grain Filling Phase       43  33.4  22.3  27.9  18.0   0.00  388.2   59.6   69.9  212.1    0    0   41   34   17   18  0.585  0.647  0.000  0.000  0.000  0.000


 Planting to Harvest      109  34.3  22.3  28.3  19.3   8.64  387.9  286.1  232.4  594.4    0    0  105   92   60   33  0.409  0.488  0.000  0.001  0.000  0.000
----------------------------------------------------------------------------------------------------------------------------------------------------------------


*Resource Productivity
 Growing season length: 109 days 

 Precipitation during growing season       286.1 mm[rain]
   Dry Matter Productivity                  2.45 kg[DM]/m3[rain]          =   24.5 kg[DM]/ha per mm[rain]
   Yield Productivity                       0.87 kg[grain yield]/m3[rain] =    8.7 kg[yield]/ha per mm[rain]

 Evapotranspiration during growing season  232.4 mm[ET]
   Dry Matter Productivity                  3.02 kg[DM]/m3[ET]            =   30.2 kg[DM]/ha per mm[ET]
   Yield Productivity                       1.07 kg[grain yield]/m3[ET]   =   10.7 kg[yield]/ha per mm[ET]

 Transpiration during growing season       129.0 mm[EP]
   Dry Matter Productivity                  5.43 kg[DM]/m3[EP]            =   54.3 kg[DM]/ha per mm[EP]
   Yield Productivity                       1.92 kg[grain yield]/m3[EP]   =   19.2 kg[yield]/ha per mm[EP]

 N applied during growing season            162. kg[N applied]/ha
   Dry Matter Productivity                  43.3 kg[DM]/kg[N applied]
   Yield Productivity                       15.3 kg[yield]/kg[N applied]

 N uptake during growing season              102 kg[N uptake]/ha
   Dry Matter Productivity                  68.7 kg[DM]/kg[N uptake]
   Yield Productivity                       24.3 kg[yield]/kg[N uptake]

--------------------------------------------------------------------------------------------------------------

                     Maize YIELD :     2481 kg/ha    [Dry weight] 

**************************************************************************************************************

*DSSAT Cropping System Model Ver. 4.6.1.000 -release      OCT 24, 2017; 11:02:43
                                                                                
*RUN   8        : P08/18                    MZCER046 ANES2009    8              
 MODEL          : MZCER046 - Maize                                              
 EXPERIMENT     : ANES2009 MZ  MZ Analisis a침os de bajo rendimiento Espinal    
 DATA PATH      : C:\DSSAT46\maize\                                             
 TREATMENT  8   : P08/18                    MZCER046                            
                                                                                
                                                                                
 CROP           : Maize            CULTIVAR : DK234            ECOTYPE :IB0001  
 STARTING DATE  : JUL 19 2009                                                   
 PLANTING DATE  : AUG 18 2009        PLANTS/m2 :  6.2     ROW SPACING :  80.cm  
 WEATHER        : CNAT   2009                                                   
 SOIL           : CCESPI2017     TEXTURE : SL    -   Suelo Espinal Calibraci    
 SOIL INITIAL C : DEPTH:100cm EXTR. H2O: 83.6mm  NO3:  0.0kg/ha  NH4:  0.0kg/ha 
 WATER BALANCE  : RAINFED                                                       
 IRRIGATION     : NOT IRRIGATED                                                 
 NITROGEN BAL.  : SOIL-N & N-UPTAKE SIMULATION; NO N-FIXATION                   
 N-FERTILIZER   :      162 kg/ha IN     6 APPLICATIONS                          
 RESIDUE/MANURE : INITIAL :     0 kg/ha ;       0 kg/ha IN     0 APPLICATIONS   
 ENVIRONM. OPT. : DAYL=    0.00  SRAD=    0.00  TMAX=    0.00  TMIN=    0.00    
                  RAIN=    0.00  CO2 =    0.00  DEW =    0.00  WIND=    0.00    
 SIMULATION OPT : WATER   :Y  NITROGEN:Y  N-FIX:N  PHOSPH :N  PESTS  :N         
                  PHOTO   :C  ET      :R  INFIL:S  HYDROL :R  SOM    :G         
                  CO2 387ppm  NSWIT   :1  EVAP :S  SOIL   :2  STEMP  :D         
 MANAGEMENT OPT : PLANTING:R  IRRIG   :N  FERT :D  RESIDUE:R  HARVEST:M         
                  WEATHER :M  TILLAGE :N                                        
                                                                                
*SUMMARY OF SOIL AND GENETIC INPUT PARAMETERS                                   
                                                                                
   SOIL LOWER UPPER   SAT  EXTR  INIT   ROOT   BULK     pH    NO3    NH4    ORG 
  DEPTH LIMIT LIMIT    SW    SW    SW   DIST   DENS                          C  
   cm   cm3/cm3    cm3/cm3    cm3/cm3         g/cm3         ugN/g  ugN/g     %  
------------------------------------------------------------------------------- 
  0-  5 0.160 0.252 0.376 0.092 0.252   1.00   1.69   6.60   0.00   0.00   0.45 
  5- 15 0.160 0.252 0.376 0.092 0.252   1.00   1.69   6.60   0.00   0.00   0.45 
 15- 30 0.160 0.252 0.376 0.092 0.252   1.00   1.69   6.60   0.00   0.00   0.45 
 30- 53 0.120 0.200 0.440 0.080 0.200   0.27   1.40   7.10   0.00   0.00   0.17 
 53- 77 0.120 0.200 0.440 0.080 0.200   0.27   1.40   7.10   0.00   0.00   0.17 
 77-100 0.120 0.200 0.440 0.080 0.200   0.27   1.40   7.10   0.00   0.00   0.17 
                                                                                
TOT-100  13.2  21.6  42.1   8.4  21.6  <--cm   -  kg/ha-->    0.0    0.0  39475 
SOIL ALBEDO    : 0.09      EVAPORATION LIMIT : 6.00         MIN. FACTOR  : 1.00 
RUNOFF CURVE # :76.00      DRAINAGE RATE     : 0.60         FERT. FACTOR : 1.00 
                                                                                
 Maize      CULTIVAR :CI0002-DK234              ECOTYPE :IB0001                 
 P1     : 300.00  P2     : 0.4000  P5     :1075.00                              
 G2     : 890.00  G3     :  7.750  PHINT  : 40.000                              


*SIMULATED CROP AND SOIL STATUS AT MAIN DEVELOPMENT STAGES

 RUN NO.     8     P08/18                  

        CROP GROWTH     BIOMASS         LEAF   CROP N     STRESS      STRESS                                           
   DATE  AGE STAGE        kg/ha    LAI   NUM  kg/ha  %   H2O  Nitr Phos1 Phos2  RSTG                                   
 ------  --- ----------   -----  -----  ----  ---  ---  ----  ----  ----  ----  ----                                   
 19 JUL    0 Start Sim        0   0.00   0.0    0  0.0  0.00  0.00  0.00  0.00     7
 18 AUG    0 Sowing           0   0.00   0.0    0  0.0  0.00  0.00  0.00  0.00     8
 19 AUG    1 Germinate        0   0.00   0.0    0  0.0  0.00  0.00  0.00  0.00     9
 23 AUG    5 Emergence       25   0.00   2.3    1  4.4  0.00  0.01  0.00  0.00     1
  6 SEP   19 End Juveni     394   0.69  10.2   13  3.3  0.00  0.03  0.00  0.00     2
 10 SEP   23 Floral Ini     659   1.01  12.4   25  3.8  0.37  0.00  0.00  0.00     3
 10 OCT   53 75% Silkin    4587   1.95  25.3   99  2.2  0.53  0.00  0.00  0.00     4
 19 OCT   62 Beg Gr Fil    4923   1.41  25.3  100  2.0  0.77  0.00  0.00  0.00     5
  1 DEC  105 End Gr Fil    6851   0.45  25.3  100  1.5  0.59  0.00  0.00  0.00     6
  3 DEC  107 Maturity      6851   0.45  25.3  100  1.5  0.00  0.00  0.00  0.00    10
  3 DEC  107 Harvest       6851   0.45  25.3  100  1.5  0.00  0.00  0.00  0.00    10


*MAIN GROWTH AND DEVELOPMENT VARIABLES

@     VARIABLE                                         SIMULATED     MEASURED
      --------                                         ---------     --------
      Anthesis day (dap)                                      53          -99
      Physiological maturity day (dap)                       107          -99
      Yield at harvest maturity (kg [dm]/ha)                2140          -99
      Number at maturity (no/m2)                            1017          -99
[...]
 WATER BALANCE  : RAINFED                                                       
 IRRIGATION     : NOT IRRIGATED                                                 
 NITROGEN BAL.  : SOIL-N & N-UPTAKE SIMULATION; NO N-FIXATION                   
 N-FERTILIZER   :      162 kg/ha IN     6 APPLICATIONS                          
 RESIDUE/MANURE : INITIAL :     0 kg/ha ;       0 kg/ha IN     0 APPLICATIONS   
 ENVIRONM. OPT. : DAYL=    0.00  SRAD=    0.00  TMAX=    0.00  TMIN=    0.00    
                  RAIN=    0.00  CO2 =    0.00  DEW =    0.00  WIND=    0.00    
 SIMULATION OPT : WATER   :Y  NITROGEN:Y  N-FIX:N  PHOSPH :N  PESTS  :N         
                  PHOTO   :C  ET      :R  INFIL:S  HYDROL :R  SOM    :G         
                  CO2 388ppm  NSWIT   :1  EVAP :S  SOIL   :2  STEMP  :D         
 MANAGEMENT OPT : PLANTING:R  IRRIG   :N  FERT :D  RESIDUE:R  HARVEST:M         
                  WEATHER :M  TILLAGE :N                                        
                                                                                
*SUMMARY OF SOIL AND GENETIC INPUT PARAMETERS                                   
                                                                                
   SOIL LOWER UPPER   SAT  EXTR  INIT   ROOT   BULK     pH    NO3    NH4    ORG 
  DEPTH LIMIT LIMIT    SW    SW    SW   DIST   DENS                          C  
   cm   cm3/cm3    cm3/cm3    cm3/cm3         g/cm3         ugN/g  ugN/g     %  
------------------------------------------------------------------------------- 
  0-  5 0.160 0.252 0.376 0.092 0.252   1.00   1.69   6.60   0.00   0.00   0.45 
  5- 15 0.160 0.252 0.376 0.092 0.252   1.00   1.69   6.60   0.00   0.00   0.45 
 15- 30 0.160 0.252 0.376 0.092 0.252   1.00   1.69   6.60   0.00   0.00   0.45 
 30- 53 0.120 0.200 0.440 0.080 0.200   0.27   1.40   7.10   0.00   0.00   0.17 
 53- 77 0.120 0.200 0.440 0.080 0.200   0.27   1.40   7.10   0.00   0.00   0.17 
 77-100 0.120 0.200 0.440 0.080 0.200   0.27   1.40   7.10   0.00   0.00   0.17 
                                                                                
TOT-100  13.2  21.6  42.1   8.4  21.6  <--cm   -  kg/ha-->    0.0    0.0  39475 
SOIL ALBEDO    : 0.09      EVAPORATION LIMIT : 6.00         MIN. FACTOR  : 1.00 
RUNOFF CURVE # :76.00      DRAINAGE RATE     : 0.60         FERT. FACTOR : 1.00 
                                                                                
 Maize      CULTIVAR :CI0002-DK234              ECOTYPE :IB0001                 
 P1     : 300.00  P2     : 0.4000  P5     :1075.00                              
 G2     : 890.00  G3     :  7.750  PHINT  : 40.000                              


*SIMULATED CROP AND SOIL STATUS AT MAIN DEVELOPMENT STAGES

 RUN NO.    31     P11/26                  

        CROP GROWTH     BIOMASS         LEAF   CROP N     STRESS      STRESS                                           
   DATE  AGE STAGE        kg/ha    LAI   NUM  kg/ha  %   H2O  Nitr Phos1 Phos2  RSTG                                   
 ------  --- ----------   -----  -----  ----  ---  ---  ----  ----  ----  ----  ----                                   
 26 NOV    0 Start Sim        0   0.00   0.0    0  0.0  0.00  0.00  0.00  0.00     7
 26 DEC    0 Sowing           0   0.00   0.0    0  0.0  0.00  0.00  0.00  0.00     8
 27 DEC    1 Germinate        0   0.00   0.0    0  0.0  0.00  0.00  0.00  0.00     9
 31 DEC    5 Emergence       25   0.00   2.3    1  4.4  0.00  0.01  0.00  0.00     1
 14 JAN   19 End Juveni     390   0.69  10.2   13  3.4  0.01  0.00  0.00  0.00     2
 18 JAN   23 Floral Ini     581   0.89  12.4   20  3.5  0.56  0.00  0.00  0.00     3
 17 FEB   53 75% Silkin    2456   0.99  25.5   29  1.2  0.72  0.42  0.00  0.00     4
 26 FEB   62 Beg Gr Fil    2585   0.70  25.5   48  1.9  0.83  0.51  0.00  0.00     5
  9 APR  104 End Gr Fil    3832   0.57  25.5   47  1.2  0.13  0.00  0.00  0.00     6
 12 APR  107 Maturity      3832   0.57  25.5   47  1.2  0.00  0.00  0.00  0.00    10
 12 APR  107 Harvest       3832   0.57  25.5   47  1.2  0.00  0.00  0.00  0.00    10


*MAIN GROWTH AND DEVELOPMENT VARIABLES

@     VARIABLE                                         SIMULATED     MEASURED
      --------                                         ---------     --------
      Anthesis day (dap)                                      53          -99
      Physiological maturity day (dap)                       107          -99
      Yield at harvest maturity (kg [dm]/ha)                1202          -99
      Number at maturity (no/m2)                             475          -99
      Unit wt at maturity (g [dm]/unit)                   0.2529          -99
      Number at maturity (no/unit)                          81.6          -99
      Tops weight at maturity (kg [dm]/ha)                  3832          -99
      By-product produced (stalk) at maturity (kg[dm]/ha    2670          -99
      Leaf area index, maximum                              1.51          -99
      Harvest index at maturity                            0.314          -99
      Grain N at maturity (kg/ha)                             21          -99
      Tops N at maturity (kg/ha)                              47          -99
      Stem N at maturity (kg/ha)                              24          -99
      Grain N at maturity (%)                                1.8          -99
      Tops weight at anthesis (kg [dm]/ha)                  2426          -99
      Tops N at anthesis (kg/ha)                              29          -99
      Leaf number per stem at maturity                     25.49          -99
      Emergence day (dap)                                      5          -99


*ENVIRONMENTAL AND STRESS FACTORS

 |-----Development Phase------|--------------------------------------Environment--------------------------------------|-----------------Stress-----------------|
                              |---------------Average--------------|-----Cumulative-----|--------Count of days--------|          (0=Min, 1=Max Stress)         |
                         Time  Temp  Temp  Temp Solar Photop                Evapo    Pot TMIN TMIN TMAX TMAX TMAX RAIN|----Water----|---Nitrogen--|-Phosphorus-|
                         Span   Max   Min  Mean   Rad  [day]    CO2   Rain  Trans     ET   <    <    >    >    >    >   Photo         Photo         Photo
                         days    邂    邂    邂 MJ/m2     hr    ppm     mm     mm     mm  0邂  2邂 30邂 32邂 34邂  0mm  synth Growth  synth Growth  synth Growth
----------------------------------------------------------------------------------------------------------------------------------------------------------------
 Emergence-End Juvenile    14  33.9  22.5  28.2  20.5   0.00  388.5  109.8   40.1   83.5    0    0   14   14    7    4  0.000  0.003  0.002  0.006  0.000  0.000
 End Juvenil-Floral Init    4  35.1  21.6  28.4  22.0   0.00  388.7    0.0    9.1   24.6    0    0    4    4    4    0  0.227  0.408  0.000  0.001  0.000  0.000
 Floral Init-End Lf Grow   30  34.3  22.6  28.4  19.6   0.00  388.8    3.3   43.3  161.4    0    0   28   25   17    4  0.581  0.716  0.190  0.401  0.000  0.000
 End Lf Grth-Beg Grn Fil    9  35.0  23.6  29.3  20.3   0.00  389.0    0.2    7.9   52.4    0    0    9    8    6    1  0.755  0.837  0.225  0.518  0.000  0.000
 Grain Filling Phase       42  34.0  22.5  28.3  19.4  10.34  389.1  500.8  156.9  232.5    0    0   41   32   24   15  0.112  0.153  0.004  0.011  0.000  0.000


 Planting to Harvest      107  34.0  22.5  28.3  19.7   4.60  388.9  618.2  280.1  596.5    0    0  103   88   58   25  0.279  0.347  0.074  0.161  0.000  0.000
----------------------------------------------------------------------------------------------------------------------------------------------------------------


*Resource Productivity
 Growing season length: 107 days 

 Precipitation during growing season       618.2 mm[rain]
   Dry Matter Productivity                  0.62 kg[DM]/m3[rain]          =    6.2 kg[DM]/ha per mm[rain]
   Yield Productivity                       0.19 kg[grain yield]/m3[rain] =    1.9 kg[yield]/ha per mm[rain]

 Evapotranspiration during growing season  280.1 mm[ET]
   Dry Matter Productivity                  1.37 kg[DM]/m3[ET]            =   13.7 kg[DM]/ha per mm[ET]
   Yield Productivity                       0.43 kg[grain yield]/m3[ET]   =    4.3 kg[yield]/ha per mm[ET]

 Transpiration during growing season       134.1 mm[EP]
   Dry Matter Productivity                  2.86 kg[DM]/m3[EP]            =   28.6 kg[DM]/ha per mm[EP]
   Yield Productivity                       0.90 kg[grain yield]/m3[EP]   =    9.0 kg[yield]/ha per mm[EP]

 N applied during growing season            162. kg[N applied]/ha
   Dry Matter Productivity                  23.7 kg[DM]/kg[N applied]
   Yield Productivity                        7.4 kg[yield]/kg[N applied]

 N uptake during growing season               61 kg[N uptake]/ha
   Dry Matter Productivity                  62.8 kg[DM]/kg[N uptake]
   Yield Productivity                       19.7 kg[yield]/kg[N uptake]

--------------------------------------------------------------------------------------------------------------

                     Maize YIELD :     1202 kg/ha    [Dry weight] 

**************************************************************************************************************

*DSSAT Cropping System Model Ver. 4.6.1.000 -release      OCT 24, 2017; 11:02:57
                                                                                
*RUN  32        : P12/31                    MZCER046 ANES2009   32              
 MODEL          : MZCER046 - Maize                                              
 EXPERIMENT     : ANES2009 MZ  MZ Analisis a침os de bajo rendimiento Espinal    
 DATA PATH      : C:\DSSAT46\maize\                                             
 TREATMENT 32   : P12/31                    MZCER046                            
                                                                                
                                                                                
 CROP           : Maize            CULTIVAR : DK234            ECOTYPE :IB0001  
 STARTING DATE  : DEC  1 2009                                                   
 PLANTING DATE  : DEC 31 2009        PLANTS/m2 :  6.2     ROW SPACING :  80.cm  
 WEATHER        : CNAT   2009                                                   
 SOIL           : CCESPI2017     TEXTURE : SL    -   Suelo Espinal Calibraci    
 SOIL INITIAL C : DEPTH:100cm EXTR. H2O: 83.6mm  NO3:  0.0kg/ha  NH4:  0.0kg/ha 
 WATER BALANCE  : RAINFED                                                       
 IRRIGATION     : NOT IRRIGATED                                                 
 NITROGEN BAL.  : SOIL-N & N-UPTAKE SIMULATION; NO N-FIXATION                   
 N-FERTILIZER   :      162 kg/ha IN     6 APPLICATIONS                          
 RESIDUE/MANURE : INITIAL :     0 kg/ha ;       0 kg/ha IN     0 APPLICATIONS   
 ENVIRONM. OPT. : DAYL=    0.00  SRAD=    0.00  TMAX=    0.00  TMIN=    0.00    
                  RAIN=    0.00  CO2 =    0.00  DEW =    0.00  WIND=    0.00    
 SIMULATION OPT : WATER   :Y  NITROGEN:Y  N-FIX:N  PHOSPH :N  PESTS  :N         
                  PHOTO   :C  ET      :R  INFIL:S  HYDROL :R  SOM    :G         
                  CO2 388ppm  NSWIT   :1  EVAP :S  SOIL   :2  STEMP  :D         
 MANAGEMENT OPT : PLANTING:R  IRRIG   :N  FERT :D  RESIDUE:R  HARVEST:M         
                  WEATHER :M  TILLAGE :N                                        
                                                                                
*SUMMARY OF SOIL AND GENETIC INPUT PARAMETERS                                   
                                                                                
   SOIL LOWER UPPER   SAT  EXTR  INIT   ROOT   BULK     pH    NO3    NH4    ORG 
  DEPTH LIMIT LIMIT    SW    SW    SW   DIST   DENS                          C  
   cm   cm3/cm3    cm3/cm3    cm3/cm3         g/cm3         ugN/g  ugN/g     %  
------------------------------------------------------------------------------- 
  0-  5 0.160 0.252 0.376 0.092 0.252   1.00   1.69   6.60   0.00   0.00   0.45 
  5- 15 0.160 0.252 0.376 0.092 0.252   1.00   1.69   6.60   0.00   0.00   0.45 
 15- 30 0.160 0.252 0.376 0.092 0.252   1.00   1.69   6.60   0.00   0.00   0.45 
 30- 53 0.120 0.200 0.440 0.080 0.200   0.27   1.40   7.10   0.00   0.00   0.17 
 53- 77 0.120 0.200 0.440 0.080 0.200   0.27   1.40   7.10   0.00   0.00   0.17 
 77-100 0.120 0.200 0.440 0.080 0.200   0.27   1.40   7.10   0.00   0.00   0.17 
                                                                                
TOT-100  13.2  21.6  42.1   8.4  21.6  <--cm   -  kg/ha-->    0.0    0.0  39475 
SOIL ALBEDO    : 0.09      EVAPORATION LIMIT : 6.00         MIN. FACTOR  : 1.00 
RUNOFF CURVE # :76.00      DRAINAGE RATE     : 0.60         FERT. FACTOR : 1.00 
                                                                                
 Maize      CULTIVAR :CI0002-DK234              ECOTYPE :IB0001                 
 P1     : 300.00  P2     : 0.4000  P5     :1075.00                              
 G2     : 890.00  G3     :  7.750  PHINT  : 40.000                              


*SIMULATED CROP AND SOIL STATUS AT MAIN DEVELOPMENT STAGES

 RUN NO.    32     P12/31                  

        CROP GROWTH     BIOMASS         LEAF   CROP N     STRESS      STRESS                                           
   DATE  AGE STAGE        kg/ha    LAI   NUM  kg/ha  %   H2O  Nitr Phos1 Phos2  RSTG                                   
 ------  --- ----------   -----  -----  ----  ---  ---  ----  ----  ----  ----  ----                                   
  1 DEC    0 Start Sim        0   0.00   0.0    0  0.0  0.00  0.00  0.00  0.00     7
 31 DEC    0 Sowing           0   0.00   0.0    0  0.0  0.00  0.00  0.00  0.00     8
  1 JAN    1 Germinate        0   0.00   0.0    0  0.0  0.00  0.00  0.00  0.00     9
  5 JAN    5 Emergence       25   0.00   2.3    1  4.4  0.00  0.01  0.00  0.00     1
 19 JAN   19 End Juveni     303   0.49  10.4    4  1.3  0.10  0.27  0.00  0.00     2
 23 JAN   23 Floral Ini     356   0.48  12.5    5  1.3  0.52  0.87  0.00  0.00     3
 22 FEB   53 75% Silkin    1346   0.43  25.7   10  0.7  0.64  0.84  0.00  0.00     4
  3 MAR   62 Beg Gr Fil    1715   0.36  25.7   29  1.7  0.30  0.36  0.00  0.00     5
 15 APR  105 End Gr Fil    3858   0.36  25.7   52  1.4  0.04  0.00  0.00  0.00     6
 18 APR  108 Maturity      3858   0.36  25.7   52  1.4  0.00  0.00  0.00  0.00    10
 18 APR  108 Harvest       3858   0.36  25.7   52  1.4  0.00  0.00  0.00  0.00    10


*MAIN GROWTH AND DEVELOPMENT VARIABLES

@     VARIABLE                                         SIMULATED     MEASURED
      --------                                         ---------     --------
      Anthesis day (dap)                                      53          -99
      Physiological maturity day (dap)                       108          -99
      Yield at harvest maturity (kg [dm]/ha)                2163          -99
      Number at maturity (no/m2)                             767          -99
      Unit wt at maturity (g [dm]/unit)                   0.2819          -99
      Number at maturity (no/unit)                         126.1          -99
      Tops weight at maturity (kg [dm]/ha)                  3858          -99
      By-product produced (stalk) at maturity (kg[dm]/ha    1718          -99
      Leaf area index, maximum                              0.58          -99
      Harvest index at maturity                            0.561          -99
      Grain N at maturity (kg/ha)                             38          -99
      Tops N at maturity (kg/ha)                              52          -99
      Stem N at maturity (kg/ha)                              14          -99
      Grain N at maturity (%)                                1.8          -99
      Tops weight at anthesis (kg [dm]/ha)                  1325          -99
      Tops N at anthesis (kg/ha)                              10          -99
      Leaf number per stem at maturity                     25.72          -99
      Emergence day (dap)                                      5          -99


*ENVIRONMENTAL AND STRESS FACTORS

 |-----Development Phase------|--------------------------------------Environment--------------------------------------|-----------------Stress-----------------|
                              |---------------Average--------------|-----Cumulative-----|--------Count of days--------|          (0=Min, 1=Max Stress)         |
                         Time  Temp  Temp  Temp Solar Photop                Evapo    Pot TMIN TMIN TMAX TMAX TMAX RAIN|----Water----|---Nitrogen--|-Phosphorus-|
                         Span   Max   Min  Mean   Rad  [day]    CO2   Rain  Trans     ET   <    <    >    >    >    >   Photo         Photo         Photo
                         days    邂    邂    邂 MJ/m2     hr    ppm     mm     mm     mm  0邂  2邂 30邂 32邂 34邂  0mm  synth Growth  synth Growth  synth Growth
----------------------------------------------------------------------------------------------------------------------------------------------------------------
 Emergence-End Juvenile    14  34.5  22.7  28.6  20.7   0.00  388.6  106.7   40.9   85.3    0    0   14   14   11    3  0.000  0.059  0.113  0.210  0.000  0.000
 End Juvenil-Floral Init    4  34.8  21.7  28.2  20.6   0.00  388.8    0.0    6.1   23.4    0    0    4    4    2    0  0.300  0.534  0.649  0.874  0.000  0.000
 Floral Init-End Lf Grow   30  34.5  22.9  28.7  19.8   0.00  388.8    3.5   34.2  171.7    0    0   28   25   19    5  0.454  0.632  0.607  0.839  0.000  0.000
 End Lf Grth-Beg Grn Fil    9  33.5  23.0  28.3  18.8   0.92  389.0   43.1   20.5   48.9    0    0    8    6    4    1  0.299  0.385  0.325  0.456  0.000  0.000
 Grain Filling Phase       43  33.7  22.2  27.9  19.3  12.78  389.1  474.8  152.4  240.2    0    0   41   31   21   17  0.009  0.044  0.000  0.000  0.000  0.000


 Planting to Harvest      108  34.0  22.4  28.2  19.6   5.83  388.9  658.6  271.5  613.8    0    0  102   86   58   29  0.166  0.252  0.234  0.331  0.000  0.000
----------------------------------------------------------------------------------------------------------------------------------------------------------------


*Resource Productivity
 Growing season length: 108 days 

 Precipitation during growing season       658.6 mm[rain]
   Dry Matter Productivity                  0.59 kg[DM]/m3[rain]          =    5.9 kg[DM]/ha per mm[rain]
   Yield Productivity                       0.33 kg[grain yield]/m3[rain] =    3.3 kg[yield]/ha per mm[rain]

 Evapotranspiration during growing season  271.5 mm[ET]
   Dry Matter Productivity                  1.42 kg[DM]/m3[ET]            =   14.2 kg[DM]/ha per mm[ET]
   Yield Productivity                       0.80 kg[grain yield]/m3[ET]   =    8.0 kg[yield]/ha per mm[ET]

 Transpiration during growing season       103.3 mm[EP]
   Dry Matter Productivity                  3.74 kg[DM]/m3[EP]            =   37.4 kg[DM]/ha per mm[EP]
   Yield Productivity                       2.09 kg[grain yield]/m3[EP]   =   20.9 kg[yield]/ha per mm[EP]

 N applied during growing season            162. kg[N applied]/ha
   Dry Matter Productivity                  23.8 kg[DM]/kg[N applied]
   Yield Productivity                       13.4 kg[yield]/kg[N applied]

 N uptake during growing season               57 kg[N uptake]/ha
   Dry Matter Productivity                  67.7 kg[DM]/kg[N uptake]
   Yield Productivity                       37.9 kg[yield]/kg[N uptake]

--------------------------------------------------------------------------------------------------------------

                     Maize YIELD :     2163 kg/ha    [Dry weight] 

**************************************************************************************************************
