*SIMULATION OVERVIEW FILE

*DSSAT Cropping System Model Ver. 4.6.1.000 -release      OCT 02, 2017; 13:18:28
                                                                                
*RUN   1        : P04/02                    MZCER046 ANBU1982    1              
 MODEL          : MZCER046 - Maize                                              
 EXPERIMENT     : ANBU1982 MZ  Analisis a침os de bajo rendimiento Buga          
 DATA PATH      : C:\DSSAT46\maize\                                             
 TREATMENT  1   : P04/02                    MZCER046                            
                                                                                
                                                                                
 CROP           : Maize            CULTIVAR : DK7088           ECOTYPE :IB0001  
 STARTING DATE  : MAR  3 1982                                                   
 PLANTING DATE  : APR  2 1982        PLANTS/m2 :  6.2     ROW SPACING :  80.cm  
 WEATHER        : CUNI   1982                                                   
 SOIL           : CCBUGA2017     TEXTURE : CL    -   Suelo Buga MADR Fase I     
 SOIL INITIAL C : DEPTH: 90cm EXTR. H2O: 83.9mm  NO3:151.4kg/ha  NH4: 62.4kg/ha 
 WATER BALANCE  : RAINFED                                                       
 IRRIGATION     : NOT IRRIGATED                                                 
 NITROGEN BAL.  : SOIL-N & N-UPTAKE SIMULATION; NO N-FIXATION                   
 N-FERTILIZER   :      161 kg/ha IN     5 APPLICATIONS                          
 RESIDUE/MANURE : INITIAL :     0 kg/ha ;       0 kg/ha IN     0 APPLICATIONS   
 ENVIRONM. OPT. : DAYL=    0.00  SRAD=    0.00  TMAX=    0.00  TMIN=    0.00    
                  RAIN=    0.00  CO2 =    0.00  DEW =    0.00  WIND=    0.00    
 SIMULATION OPT : WATER   :Y  NITROGEN:Y  N-FIX:N  PHOSPH :N  PESTS  :N         
                  PHOTO   :C  ET      :R  INFIL:S  HYDROL :R  SOM    :G         
                  CO2 341ppm  NSWIT   :1  EVAP :S  SOIL   :2  STEMP  :D         
 MANAGEMENT OPT : PLANTING:R  IRRIG   :N  FERT :D  RESIDUE:R  HARVEST:M         
                  WEATHER :M  TILLAGE :N                                        
                                                                                
*SUMMARY OF SOIL AND GENETIC INPUT PARAMETERS                                   
                                                                                
   SOIL LOWER UPPER   SAT  EXTR  INIT   ROOT   BULK     pH    NO3    NH4    ORG 
  DEPTH LIMIT LIMIT    SW    SW    SW   DIST   DENS                          C  
   cm   cm3/cm3    cm3/cm3    cm3/cm3         g/cm3         ugN/g  ugN/g     %  
------------------------------------------------------------------------------- 
  0-  5 0.215 0.331 0.341 0.116 0.319   1.00   1.68   6.70  11.90   4.21   0.75 
  5- 15 0.215 0.331 0.341 0.116 0.319   1.00   1.68   6.70  11.90   4.21   0.75 
 15- 25 0.215 0.331 0.341 0.116 0.319   1.00   1.68   6.70  11.90   4.21   0.75 
 25- 35 0.181 0.291 0.364 0.110 0.331   0.50   1.61   7.20  12.15   4.32   0.53 
 35- 45 0.181 0.291 0.364 0.110 0.344   0.50   1.61   7.20  12.40   4.44   0.53 
 45- 67 0.096 0.169 0.404 0.073 0.290   0.27   1.51   7.00  10.67   4.47   0.05 
 67- 90 0.096 0.169 0.404 0.073 0.195   0.27   1.51   7.00   7.63   4.53   0.05 
                                                                                
TOT- 90  13.3  21.7  34.0   8.4  25.6  <--cm   -  kg/ha-->  151.4   62.4  51964 
SOIL ALBEDO    : 0.09      EVAPORATION LIMIT : 6.00         MIN. FACTOR  : 1.00 
RUNOFF CURVE # :76.00      DRAINAGE RATE     : 0.60         FERT. FACTOR : 1.00 
                                                                                
 Maize      CULTIVAR :CI0004-DK7088             ECOTYPE :IB0001                 
 P1     : 229.00  P2     : 0.3000  P5     : 971.00                              
 G2     : 957.00  G3     :  7.500  PHINT  : 45.000                              


*SIMULATED CROP AND SOIL STATUS AT MAIN DEVELOPMENT STAGES

 RUN NO.     1     P04/02                  

        CROP GROWTH     BIOMASS         LEAF   CROP N     STRESS      STRESS                                           
   DATE  AGE STAGE        kg/ha    LAI   NUM  kg/ha  %   H2O  Nitr Phos1 Phos2  RSTG                                   
 ------  --- ----------   -----  -----  ----  ---  ---  ----  ----  ----  ----  ----                                   
  3 MAR    0 Start Sim        0   0.00   0.0    0  0.0  0.00  0.00  0.00  0.00     7
  2 APR    0 Sowing           0   0.00   0.0    0  0.0  0.00  0.00  0.00  0.00     8
  3 APR    1 Germinate        0   0.00   0.0    0  0.0  0.00  0.00  0.00  0.00     9
  8 APR    6 Emergence       25   0.00   2.1    1  4.4  0.00  0.01  0.00  0.00     1
 21 APR   19 End Juveni      76   0.17   7.6    3  3.5  0.00  0.00  0.00  0.00     2
 27 APR   25 Floral Ini     250   0.47  10.0    9  3.6  0.00  0.00  0.00  0.00     3
  2 JUN   61 75% Silkin    4957   2.78  20.7   96  1.9  0.00  0.00  0.00  0.00     4
 12 JUN   71 Beg Gr Fil    7073   2.63  20.7   97  1.4  0.00  0.00  0.00  0.00     5
 27 JUL  116 End Gr Fil   12447   0.89  20.7  159  1.3  0.54  0.00  0.00  0.00     6
 30 JUL  119 Maturity     12447   0.89  20.7  159  1.3  0.96  0.00  0.00  0.00    10
 30 JUL  119 Harvest      12447   0.89  20.7  159  1.3  0.00  0.00  0.00  0.00    10


*MAIN GROWTH AND DEVELOPMENT VARIABLES

@     VARIABLE                                         SIMULATED     MEASURED
      --------                                         ---------     --------
      Anthesis day (dap)                                      61          -99
      Physiological maturity day (dap)                       119          -99
      Yield at harvest maturity (kg [dm]/ha)                6790          -99
      Number at maturity (no/m2)                            2824          -99
      Unit wt at maturity (g [dm]/unit)                   0.2404          -99
      Number at maturity (no/unit)                         455.5          -99
      Tops weight at maturity (kg [dm]/ha)                 12447          -99
      By-product produced (stalk) at maturity (kg[dm]/ha    5703          -99
      Leaf area index, maximum                              2.92          -99
      Harvest index at maturity                            0.546          -99
      Grain N at maturity (kg/ha)                            121          -99
      Tops N at maturity (kg/ha)                             159          -99
      Stem N at maturity (kg/ha)                              38          -99
      Grain N at maturity (%)                                1.8          -99
      Tops weight at anthesis (kg [dm]/ha)                  4662          -99
      Tops N at anthesis (kg/ha)                              92          -99
      Leaf number per stem at maturity                     20.65          -99
      Emergence day (dap)                                      6          -99


*ENVIRONMENTAL AND STRESS FACTORS

 |-----Development Phase------|--------------------------------------Environment--------------------------------------|-----------------Stress-----------------|
                              |---------------Average--------------|-----Cumulative-----|--------Count of days--------|          (0=Min, 1=Max Stress)         |
                         Time  Temp  Temp  Temp Solar Photop                Evapo    Pot TMIN TMIN TMAX TMAX TMAX RAIN|----Water----|---Nitrogen--|-Phosphorus-|
                         Span   Max   Min  Mean   Rad  [day]    CO2   Rain  Trans     ET   <    <    >    >    >    >   Photo         Photo         Photo
                         days    邂    邂    邂 MJ/m2     hr    ppm     mm     mm     mm  0邂  2邂 30邂 32邂 34邂  0mm  synth Growth  synth Growth  synth Growth
----------------------------------------------------------------------------------------------------------------------------------------------------------------
 Emergence-End Juvenile    13  29.9  19.4  24.7  14.7  22.01  340.8   47.5   38.3   53.1    0    0    8    0    0    8  0.000  0.000  0.002  0.005  0.000  0.000
 End Juvenil-Floral Init    6  30.1  20.1  25.1  14.8  24.00  340.9    3.4   11.3   24.3    0    0    4    1    0    4  0.000  0.000  0.000  0.000  0.000  0.000
 Floral Init-End Lf Grow   36  29.5  19.6  24.5  14.0  24.00  340.9  231.7  120.2  124.1    0    0   11    0    0   23  0.000  0.000  0.000  0.000  0.000  0.000
 End Lf Grth-Beg Grn Fil   10  30.1  19.4  24.7  16.1  24.00  341.0   26.0   38.7   38.7    0    0    6    0    0    5  0.000  0.000  0.000  0.000  0.000  0.000
 Grain Filling Phase       45  31.4  18.3  24.9  17.8  24.00  341.1   43.8  109.8  196.9    0    0   36   12    1    8  0.454  0.516  0.000  0.000  0.000  0.000


 Planting to Harvest      119  30.3  19.1  24.7  15.7  23.42  341.0  388.7  340.6  471.8    0    0   68   13    1   55  0.195  0.219  0.000  0.001  0.000  0.000
----------------------------------------------------------------------------------------------------------------------------------------------------------------


*Resource Productivity
 Growing season length: 119 days 

 Precipitation during growing season       388.7 mm[rain]
   Dry Matter Productivity                  3.20 kg[DM]/m3[rain]          =   32.0 kg[DM]/ha per mm[rain]
   Yield Productivity                       1.75 kg[grain yield]/m3[rain] =   17.5 kg[yield]/ha per mm[rain]

 Evapotranspiration during growing season  340.6 mm[ET]
   Dry Matter Productivity                  3.65 kg[DM]/m3[ET]            =   36.5 kg[DM]/ha per mm[ET]
   Yield Productivity                       1.99 kg[grain yield]/m3[ET]   =   19.9 kg[yield]/ha per mm[ET]

 Transpiration during growing season       198.4 mm[EP]
   Dry Matter Productivity                  6.27 kg[DM]/m3[EP]            =   62.7 kg[DM]/ha per mm[EP]
   Yield Productivity                       3.42 kg[grain yield]/m3[EP]   =   34.2 kg[yield]/ha per mm[EP]

 N applied during growing season            161. kg[N applied]/ha
   Dry Matter Productivity                  77.3 kg[DM]/kg[N applied]
   Yield Productivity                       42.2 kg[yield]/kg[N applied]

 N uptake during growing season              173 kg[N uptake]/ha
   Dry Matter Productivity                  71.9 kg[DM]/kg[N uptake]
   Yield Productivity                       39.2 kg[yield]/kg[N uptake]

--------------------------------------------------------------------------------------------------------------

                     Maize YIELD :     6790 kg/ha    [Dry weight] 

**************************************************************************************************************

*DSSAT Cropping System Model Ver. 4.6.1.000 -release      OCT 02, 2017; 13:18:28
                                                                                
*RUN   2        : P04/07                    MZCER046 ANBU1982    2              
 MODEL          : MZCER046 - Maize                                              
 EXPERIMENT     : ANBU1982 MZ  Analisis a침os de bajo rendimiento Buga          
 DATA PATH      : C:\DSSAT46\maize\                                             
 TREATMENT  2   : P04/07                    MZCER046                            
                                                                                
                                                                                
 CROP           : Maize            CULTIVAR : DK7088           ECOTYPE :IB0001  
 STARTING DATE  : MAR  8 1982                                                   
 PLANTING DATE  : APR  7 1982        PLANTS/m2 :  6.2     ROW SPACING :  80.cm  
 WEATHER        : CUNI   1982                                                   
 SOIL           : CCBUGA2017     TEXTURE : CL    -   Suelo Buga MADR Fase I     
 SOIL INITIAL C : DEPTH: 90cm EXTR. H2O: 83.9mm  NO3:151.4kg/ha  NH4: 62.4kg/ha 
 WATER BALANCE  : RAINFED                                                       
 IRRIGATION     : NOT IRRIGATED                                                 
 NITROGEN BAL.  : SOIL-N & N-UPTAKE SIMULATION; NO N-FIXATION                   
 N-FERTILIZER   :      161 kg/ha IN     5 APPLICATIONS                          
 RESIDUE/MANURE : INITIAL :     0 kg/ha ;       0 kg/ha IN     0 APPLICATIONS   
 ENVIRONM. OPT. : DAYL=    0.00  SRAD=    0.00  TMAX=    0.00  TMIN=    0.00    
                  RAIN=    0.00  CO2 =    0.00  DEW =    0.00  WIND=    0.00    
 SIMULATION OPT : WATER   :Y  NITROGEN:Y  N-FIX:N  PHOSPH :N  PESTS  :N         
                  PHOTO   :C  ET      :R  INFIL:S  HYDROL :R  SOM    :G         
                  CO2 341ppm  NSWIT   :1  EVAP :S  SOIL   :2  STEMP  :D         
 MANAGEMENT OPT : PLANTING:R  IRRIG   :N  FERT :D  RESIDUE:R  HARVEST:M         
                  WEATHER :M  TILLAGE :N                                        
                                                                                
*SUMMARY OF SOIL AND GENETIC INPUT PARAMETERS                                   
                                                                                
   SOIL LOWER UPPER   SAT  EXTR  INIT   ROOT   BULK     pH    NO3    NH4    ORG 
  DEPTH LIMIT LIMIT    SW    SW    SW   DIST   DENS                          C  
   cm   cm3/cm3    cm3/cm3    cm3/cm3         g/cm3         ugN/g  ugN/g     %  
------------------------------------------------------------------------------- 
  0-  5 0.215 0.331 0.341 0.116 0.319   1.00   1.68   6.70  11.90   4.21   0.75 
  5- 15 0.215 0.331 0.341 0.116 0.319   1.00   1.68   6.70  11.90   4.21   0.75 
 15- 25 0.215 0.331 0.341 0.116 0.319   1.00   1.68   6.70  11.90   4.21   0.75 
 25- 35 0.181 0.291 0.364 0.110 0.331   0.50   1.61   7.20  12.15   4.32   0.53 
 35- 45 0.181 0.291 0.364 0.110 0.344   0.50   1.61   7.20  12.40   4.44   0.53 
 45- 67 0.096 0.169 0.404 0.073 0.290   0.27   1.51   7.00  10.67   4.47   0.05 
 67- 90 0.096 0.169 0.404 0.073 0.195   0.27   1.51   7.00   7.63   4.53   0.05 
                                                                                
TOT- 90  13.3  21.7  34.0   8.4  25.6  <--cm   -  kg/ha-->  151.4   62.4  51964 
SOIL ALBEDO    : 0.09      EVAPORATION LIMIT : 6.00         MIN. FACTOR  : 1.00 
RUNOFF CURVE # :76.00      DRAINAGE RATE     : 0.60         FERT. FACTOR : 1.00 
                                                                                
 Maize      CULTIVAR :CI0004-DK7088             ECOTYPE :IB0001                 
 P1     : 229.00  P2     : 0.3000  P5     : 971.00                              
 G2     : 957.00  G3     :  7.500  PHINT  : 45.000                              


*SIMULATED CROP AND SOIL STATUS AT MAIN DEVELOPMENT STAGES

 RUN NO.     2     P04/07                  

        CROP GROWTH     BIOMASS         LEAF   CROP N     STRESS      STRESS                                           
   DATE  AGE STAGE        kg/ha    LAI   NUM  kg/ha  %   H2O  Nitr Phos1 Phos2  RSTG                                   
 ------  --- ----------   -----  -----  ----  ---  ---  ----  ----  ----  ----  ----                                   
  8 MAR    0 Start Sim        0   0.00   0.0    0  0.0  0.00  0.00  0.00  0.00     7
  7 APR    0 Sowing           0   0.00   0.0    0  0.0  0.00  0.00  0.00  0.00     8
  8 APR    1 Germinate        0   0.00   0.0    0  0.0  0.00  0.00  0.00  0.00     9
 13 APR    6 Emergence       25   0.00   2.0    1  4.4  0.00  0.01  0.00  0.00     1
 26 APR   19 End Juveni      91   0.20   7.7    3  3.3  0.00  0.00  0.00  0.00     2
  3 MAY   26 Floral Ini     290   0.53  10.4   10  3.6  0.00  0.00  0.00  0.00     3
  9 JUN   63 75% Silkin    5427   2.89  21.8  105  1.9  0.00  0.00  0.00  0.00     4
 19 JUN   73 Beg Gr Fil    7703   2.73  21.8  106  1.4  0.00  0.00  0.00  0.00     5
  2 AUG  117 End Gr Fil   11723   0.70  21.8  144  1.2  0.69  0.00  0.00  0.00     6
  5 AUG  120 Maturity     11723   0.70  21.8  144  1.2  0.97  0.00  0.00  0.00    10
  5 AUG  120 Harvest      11723   0.70  21.8  144  1.2  0.00  0.00  0.00  0.00    10


*MAIN GROWTH AND DEVELOPMENT VARIABLES

@     VARIABLE                                         SIMULATED     MEASURED
      --------                                         ---------     --------
      Anthesis day (dap)                                      63          -99
      Physiological maturity day (dap)                       120          -99
      Yield at harvest maturity (kg [dm]/ha)                5415          -99
      Number at maturity (no/m2)                            2924          -99
      Unit wt at maturity (g [dm]/unit)                   0.1852          -99
      Number at maturity (no/unit)                         471.6          -99
      Tops weight at maturity (kg [dm]/ha)                 11723          -99
      By-product produced (stalk) at maturity (kg[dm]/ha    6356          -99
      Leaf area index, maximum                              3.03          -99
      Harvest index at maturity                            0.462          -99
      Grain N at maturity (kg/ha)                             98          -99
      Tops N at maturity (kg/ha)                             144          -99
      Stem N at maturity (kg/ha)                              46          -99
      Grain N at maturity (%)                                1.8          -99
      Tops weight at anthesis (kg [dm]/ha)                  5186          -99
      Tops N at anthesis (kg/ha)                             104          -99
      Leaf number per stem at maturity                     21.81          -99
      Emergence day (dap)                                      6          -99


*ENVIRONMENTAL AND STRESS FACTORS

 |-----Development Phase------|--------------------------------------Environment--------------------------------------|-----------------Stress-----------------|
                              |---------------Average--------------|-----Cumulative-----|--------Count of days--------|          (0=Min, 1=Max Stress)         |
                         Time  Temp  Temp  Temp Solar Photop                Evapo    Pot TMIN TMIN TMAX TMAX TMAX RAIN|----Water----|---Nitrogen--|-Phosphorus-|
                         Span   Max   Min  Mean   Rad  [day]    CO2   Rain  Trans     ET   <    <    >    >    >    >   Photo         Photo         Photo
                         days    邂    邂    邂 MJ/m2     hr    ppm     mm     mm     mm  0邂  2邂 30邂 32邂 34邂  0mm  synth Growth  synth Growth  synth Growth
----------------------------------------------------------------------------------------------------------------------------------------------------------------
 Emergence-End Juvenile    13  30.2  19.7  24.9  14.8  23.76  340.9   18.5   27.7   53.6    0    0    9    1    0    7  0.000  0.000  0.002  0.005  0.000  0.000
 End Juvenil-Floral Init    7  29.5  19.4  24.5  13.0  24.00  340.9   65.9   16.4   24.6    0    0    4    0    0    6  0.000  0.000  0.001  0.001  0.000  0.000
 Floral Init-End Lf Grow   37  29.6  19.6  24.6  14.5  24.00  340.9  173.6  129.1  132.4    0    0   12    0    0   20  0.000  0.000  0.000  0.000  0.000  0.000
 End Lf Grth-Beg Grn Fil   10  30.4  19.0  24.7  16.6  24.00  341.0   21.0   39.6   39.6    0    0    6    0    0    4  0.000  0.000  0.000  0.000  0.000  0.000
 Grain Filling Phase       44  31.6  18.3  25.0  18.2  24.00  341.1   45.7   85.3  199.2    0    0   37   15    2   10  0.600  0.666  0.000  0.000  0.000  0.000


 Planting to Harvest      120  30.6  19.0  24.8  16.2  23.73  341.0  360.0  323.7  490.7    0    0   74   19    4   52  0.244  0.268  0.000  0.001  0.000  0.000
----------------------------------------------------------------------------------------------------------------------------------------------------------------


*Resource Productivity
 Growing season length: 120 days 

 Precipitation during growing season       360.0 mm[rain]
   Dry Matter Productivity                  3.26 kg[DM]/m3[rain]          =   32.6 kg[DM]/ha per mm[rain]
   Yield Productivity                       1.50 kg[grain yield]/m3[rain] =   15.0 kg[yield]/ha per mm[rain]

 Evapotranspiration during growing season  323.7 mm[ET]
   Dry Matter Productivity                  3.62 kg[DM]/m3[ET]            =   36.2 kg[DM]/ha per mm[ET]
   Yield Productivity                       1.67 kg[grain yield]/m3[ET]   =   16.7 kg[yield]/ha per mm[ET]

 Transpiration during growing season       184.1 mm[EP]
   Dry Matter Productivity                  6.37 kg[DM]/m3[EP]            =   63.7 kg[DM]/ha per mm[EP]
   Yield Productivity                       2.94 kg[grain yield]/m3[EP]   =   29.4 kg[yield]/ha per mm[EP]

 N applied during growing season            161. kg[N applied]/ha
   Dry Matter Productivity                  72.8 kg[DM]/kg[N applied]
   Yield Productivity                       33.6 kg[yield]/kg[N applied]

 N uptake during growing season              157 kg[N uptake]/ha
   Dry Matter Productivity                  74.7 kg[DM]/kg[N uptake]
   Yield Productivity                       34.5 kg[yield]/kg[N uptake]

--------------------------------------------------------------------------------------------------------------

                     Maize YIELD :     5415 kg/ha    [Dry weight] 

**************************************************************************************************************

*DSSAT Cropping System Model Ver. 4.6.1.000 -release      OCT 02, 2017; 13:18:28
                                                                                
*RUN   3        : P04/12                    MZCER046 ANBU1982    3              
 MODEL          : MZCER046 - Maize                                              
 EXPERIMENT     : ANBU1982 MZ  Analisis a침os de bajo rendimiento Buga          
 DATA PATH      : C:\DSSAT46\maize\                                             
 TREATMENT  3   : P04/12                    MZCER046                            
                                                                                
                                                                                
 CROP           : Maize            CULTIVAR : DK7088           ECOTYPE :IB0001  
 STARTING DATE  : MAR 13 1982                                                   
 PLANTING DATE  : APR 12 1982        PLANTS/m2 :  6.2     ROW SPACING :  80.cm  
 WEATHER        : CUNI   1982                                                   
 SOIL           : CCBUGA2017     TEXTURE : CL    -   Suelo Buga MADR Fase I     
 SOIL INITIAL C : DEPTH: 90cm EXTR. H2O: 83.9mm  NO3:151.4kg/ha  NH4: 62.4kg/ha 
 WATER BALANCE  : RAINFED                                                       
 IRRIGATION     : NOT IRRIGATED                                                 
 NITROGEN BAL.  : SOIL-N & N-UPTAKE SIMULATION; NO N-FIXATION                   
 N-FERTILIZER   :      161 kg/ha IN     5 APPLICATIONS                          
 RESIDUE/MANURE : INITIAL :     0 kg/ha ;       0 kg/ha IN     0 APPLICATIONS   
 ENVIRONM. OPT. : DAYL=    0.00  SRAD=    0.00  TMAX=    0.00  TMIN=    0.00    
                  RAIN=    0.00  CO2 =    0.00  DEW =    0.00  WIND=    0.00    
 SIMULATION OPT : WATER   :Y  NITROGEN:Y  N-FIX:N  PHOSPH :N  PESTS  :N         
                  PHOTO   :C  ET      :R  INFIL:S  HYDROL :R  SOM    :G         
                  CO2 341ppm  NSWIT   :1  EVAP :S  SOIL   :2  STEMP  :D         
 MANAGEMENT OPT : PLANTING:R  IRRIG   :N  FERT :D  RESIDUE:R  HARVEST:M         
                  WEATHER :M  TILLAGE :N                                        
                                                                                
*SUMMARY OF SOIL AND GENETIC INPUT PARAMETERS                                   
                                                                                
   SOIL LOWER UPPER   SAT  EXTR  INIT   ROOT   BULK     pH    NO3    NH4    ORG 
  DEPTH LIMIT LIMIT    SW    SW    SW   DIST   DENS                          C  
   cm   cm3/cm3    cm3/cm3    cm3/cm3         g/cm3         ugN/g  ugN/g     %  
------------------------------------------------------------------------------- 
  0-  5 0.215 0.331 0.341 0.116 0.319   1.00   1.68   6.70  11.90   4.21   0.75 
  5- 15 0.215 0.331 0.341 0.116 0.319   1.00   1.68   6.70  11.90   4.21   0.75 
 15- 25 0.215 0.331 0.341 0.116 0.319   1.00   1.68   6.70  11.90   4.21   0.75 
 25- 35 0.181 0.291 0.364 0.110 0.331   0.50   1.61   7.20  12.15   4.32   0.53 
 35- 45 0.181 0.291 0.364 0.110 0.344   0.50   1.61   7.20  12.40   4.44   0.53 
 45- 67 0.096 0.169 0.404 0.073 0.290   0.27   1.51   7.00  10.67   4.47   0.05 
 67- 90 0.096 0.169 0.404 0.073 0.195   0.27   1.51   7.00   7.63   4.53   0.05 
                                                                                
TOT- 90  13.3  21.7  34.0   8.4  25.6  <--cm   -  kg/ha-->  151.4   62.4  51964 
SOIL ALBEDO    : 0.09      EVAPORATION LIMIT : 6.00         MIN. FACTOR  : 1.00 
RUNOFF CURVE # :76.00      DRAINAGE RATE     : 0.60         FERT. FACTOR : 1.00 
                                                                                
 Maize      CULTIVAR :CI0004-DK7088             ECOTYPE :IB0001                 
 P1     : 229.00  P2     : 0.3000  P5     : 971.00                              
 G2     : 957.00  G3     :  7.500  PHINT  : 45.000                              


*SIMULATED CROP AND SOIL STATUS AT MAIN DEVELOPMENT STAGES

 RUN NO.     3     P04/12                  

        CROP GROWTH     BIOMASS         LEAF   CROP N     STRESS      STRESS                                           
   DATE  AGE STAGE        kg/ha    LAI   NUM  kg/ha  %   H2O  Nitr Phos1 Phos2  RSTG                                   
 ------  --- ----------   -----  -----  ----  ---  ---  ----  ----  ----  ----  ----                                   
 13 MAR    0 Start Sim        0   0.00   0.0    0  0.0  0.00  0.00  0.00  0.00     7
 12 APR    0 Sowing           0   0.00   0.0    0  0.0  0.00  0.00  0.00  0.00     8
 13 APR    1 Germinate        0   0.00   0.0    0  0.0  0.00  0.00  0.00  0.00     9
 18 APR    6 Emergence       25   0.00   2.1    1  4.4  0.00  0.01  0.00  0.00     1
  1 MAY   19 End Juveni      88   0.19   7.7    3  3.6  0.00  0.00  0.00  0.00     2
  8 MAY   26 Floral Ini     237   0.45  10.4    9  3.6  0.00  0.00  0.00  0.00     3
 14 JUN   63 75% Silkin    5714   2.95  21.8  113  2.0  0.00  0.00  0.00  0.00     4
 25 JUN   74 Beg Gr Fil    7906   2.79  21.8  114  1.4  0.04  0.00  0.00  0.00     5
  7 AUG  117 End Gr Fil   10587   0.56  21.8  124  1.2  0.81  0.00  0.00  0.00     6
 10 AUG  120 Maturity     10587   0.56  21.8  124  1.2  0.96  0.00  0.00  0.00    10
 10 AUG  120 Harvest      10587   0.56  21.8  124  1.2  0.00  0.00  0.00  0.00    10


*MAIN GROWTH AND DEVELOPMENT VARIABLES

@     VARIABLE                                         SIMULATED     MEASURED
      --------                                         ---------     --------
      Anthesis day (dap)                                      63          -99
      Physiological maturity day (dap)                       120          -99
      Yield at harvest maturity (kg [dm]/ha)                3834          -99
      Number at maturity (no/m2)                            2722          -99
      Unit wt at maturity (g [dm]/unit)                   0.1409          -99
      Number at maturity (no/unit)                         439.0          -99
      Tops weight at maturity (kg [dm]/ha)                 10587          -99
      By-product produced (stalk) at maturity (kg[dm]/ha    6803          -99
      Leaf area index, maximum                              3.10          -99
      Harvest index at maturity                            0.362          -99
      Grain N at maturity (kg/ha)                             70          -99
      Tops N at maturity (kg/ha)                             124          -99
      Stem N at maturity (kg/ha)                              54          -99
      Grain N at maturity (%)                                1.8          -99
      Tops weight at anthesis (kg [dm]/ha)                  5434          -99
      Tops N at anthesis (kg/ha)                             110          -99
      Leaf number per stem at maturity                     21.78          -99
      Emergence day (dap)                                      6          -99


*ENVIRONMENTAL AND STRESS FACTORS

 |-----Development Phase------|--------------------------------------Environment--------------------------------------|-----------------Stress-----------------|
                              |---------------Average--------------|-----Cumulative-----|--------Count of days--------|          (0=Min, 1=Max Stress)         |
                         Time  Temp  Temp  Temp Solar Photop                Evapo    Pot TMIN TMIN TMAX TMAX TMAX RAIN|----Water----|---Nitrogen--|-Phosphorus-|
                         Span   Max   Min  Mean   Rad  [day]    CO2   Rain  Trans     ET   <    <    >    >    >    >   Photo         Photo         Photo
                         days    邂    邂    邂 MJ/m2     hr    ppm     mm     mm     mm  0邂  2邂 30邂 32邂 34邂  0mm  synth Growth  synth Growth  synth Growth
----------------------------------------------------------------------------------------------------------------------------------------------------------------
 Emergence-End Juvenile    13  29.9  19.8  24.8  13.3  24.00  340.9   17.0   21.0   48.4    0    0    8    1    0    9  0.000  0.000  0.002  0.005  0.000  0.000
 End Juvenil-Floral Init    7  30.4  19.8  25.1  13.5  24.00  340.9   71.0   25.8   25.8    0    0    4    0    0    5  0.000  0.000  0.000  0.001  0.000  0.000
 Floral Init-End Lf Grow   37  29.6  19.5  24.6  15.0  24.00  341.0  181.6  129.9  137.4    0    0   12    0    0   21  0.000  0.000  0.000  0.000  0.000  0.000
 End Lf Grth-Beg Grn Fil   11  30.3  18.4  24.4  15.2  24.00  341.0   10.7   39.7   39.7    0    0    5    0    0    3  0.000  0.000  0.000  0.000  0.000  0.000
 Grain Filling Phase       43  32.0  18.2  25.1  19.1  24.00  341.1   35.0   66.6  206.7    0    0   40   19    4    7  0.731  0.798  0.000  0.000  0.000  0.000


 Planting to Harvest      120  30.7  18.9  24.8  16.4  23.95  341.0  327.8  301.1  498.9    0    0   76   21    4   49  0.285  0.310  0.000  0.001  0.000  0.000
----------------------------------------------------------------------------------------------------------------------------------------------------------------


*Resource Productivity
 Growing season length: 120 days 

 Precipitation during growing season       327.8 mm[rain]
   Dry Matter Productivity                  3.23 kg[DM]/m3[rain]          =   32.3 kg[DM]/ha per mm[rain]
   Yield Productivity                       1.17 kg[grain yield]/m3[rain] =   11.7 kg[yield]/ha per mm[rain]

 Evapotranspiration during growing season  301.1 mm[ET]
   Dry Matter Productivity                  3.52 kg[DM]/m3[ET]            =   35.2 kg[DM]/ha per mm[ET]
   Yield Productivity                       1.27 kg[grain yield]/m3[ET]   =   12.7 kg[yield]/ha per mm[ET]

 Transpiration during growing season       168.3 mm[EP]
   Dry Matter Productivity                  6.29 kg[DM]/m3[EP]            =   62.9 kg[DM]/ha per mm[EP]
   Yield Productivity                       2.28 kg[grain yield]/m3[EP]   =   22.8 kg[yield]/ha per mm[EP]

 N applied during growing season            161. kg[N applied]/ha
   Dry Matter Productivity                  65.8 kg[DM]/kg[N applied]
   Yield Productivity                       23.8 kg[yield]/kg[N applied]

 N uptake during growing season              136 kg[N uptake]/ha
   Dry Matter Productivity                  77.8 kg[DM]/kg[N uptake]
   Yield Productivity                       28.2 kg[yield]/kg[N uptake]

--------------------------------------------------------------------------------------------------------------

                     Maize YIELD :     3834 kg/ha    [Dry weight] 

**************************************************************************************************************

*DSSAT Cropping System Model Ver. 4.6.1.000 -release      OCT 02, 2017; 13:18:28
                                                                                
*RUN   4        : P04/17                    MZCER046 ANBU1982    4              
 MODEL          : MZCER046 - Maize                                              
 EXPERIMENT     : ANBU1982 MZ  Analisis a침os de bajo rendimiento Buga          
 DATA PATH      : C:\DSSAT46\maize\                                             
 TREATMENT  4   : P04/17                    MZCER046                            
                                                                                
                                                                                
 CROP           : Maize            CULTIVAR : DK7088           ECOTYPE :IB0001  
 STARTING DATE  : MAR 18 1982                                                   
 PLANTING DATE  : APR 17 1982        PLANTS/m2 :  6.2     ROW SPACING :  80.cm  
 WEATHER        : CUNI   1982                                                   
 SOIL           : CCBUGA2017     TEXTURE : CL    -   Suelo Buga MADR Fase I     
 SOIL INITIAL C : DEPTH: 90cm EXTR. H2O: 83.9mm  NO3:151.4kg/ha  NH4: 62.4kg/ha 
 WATER BALANCE  : RAINFED                                                       
 IRRIGATION     : NOT IRRIGATED                                                 
 NITROGEN BAL.  : SOIL-N & N-UPTAKE SIMULATION; NO N-FIXATION                   
 N-FERTILIZER   :      161 kg/ha IN     5 APPLICATIONS                          
 RESIDUE/MANURE : INITIAL :     0 kg/ha ;       0 kg/ha IN     0 APPLICATIONS   
 ENVIRONM. OPT. : DAYL=    0.00  SRAD=    0.00  TMAX=    0.00  TMIN=    0.00    
                  RAIN=    0.00  CO2 =    0.00  DEW =    0.00  WIND=    0.00    
 SIMULATION OPT : WATER   :Y  NITROGEN:Y  N-FIX:N  PHOSPH :N  PESTS  :N         
                  PHOTO   :C  ET      :R  INFIL:S  HYDROL :R  SOM    :G         
                  CO2 341ppm  NSWIT   :1  EVAP :S  SOIL   :2  STEMP  :D         
 MANAGEMENT OPT : PLANTING:R  IRRIG   :N  FERT :D  RESIDUE:R  HARVEST:M         
                  WEATHER :M  TILLAGE :N                                        
                                                                                
*SUMMARY OF SOIL AND GENETIC INPUT PARAMETERS                                   
                                                                                
   SOIL LOWER UPPER   SAT  EXTR  INIT   ROOT   BULK     pH    NO3    NH4    ORG 
  DEPTH LIMIT LIMIT    SW    SW    SW   DIST   DENS                          C  
   cm   cm3/cm3    cm3/cm3    cm3/cm3         g/cm3         ugN/g  ugN/g     %  
------------------------------------------------------------------------------- 
  0-  5 0.215 0.331 0.341 0.116 0.319   1.00   1.68   6.70  11.90   4.21   0.75 
  5- 15 0.215 0.331 0.341 0.116 0.319   1.00   1.68   6.70  11.90   4.21   0.75 
 15- 25 0.215 0.331 0.341 0.116 0.319   1.00   1.68   6.70  11.90   4.21   0.75 
 25- 35 0.181 0.291 0.364 0.110 0.331   0.50   1.61   7.20  12.15   4.32   0.53 
 35- 45 0.181 0.291 0.364 0.110 0.344   0.50   1.61   7.20  12.40   4.44   0.53 
 45- 67 0.096 0.169 0.404 0.073 0.290   0.27   1.51   7.00  10.67   4.47   0.05 
 67- 90 0.096 0.169 0.404 0.073 0.195   0.27   1.51   7.00   7.63   4.53   0.05 
                                                                                
TOT- 90  13.3  21.7  34.0   8.4  25.6  <--cm   -  kg/ha-->  151.4   62.4  51964 
SOIL ALBEDO    : 0.09      EVAPORATION LIMIT : 6.00         MIN. FACTOR  : 1.00 
RUNOFF CURVE # :76.00      DRAINAGE RATE     : 0.60         FERT. FACTOR : 1.00 
                                                                                
 Maize      CULTIVAR :CI0004-DK7088             ECOTYPE :IB0001                 
 P1     : 229.00  P2     : 0.3000  P5     : 971.00                              
 G2     : 957.00  G3     :  7.500  PHINT  : 45.000                              


*SIMULATED CROP AND SOIL STATUS AT MAIN DEVELOPMENT STAGES

 RUN NO.     4     P04/17                  

        CROP GROWTH     BIOMASS         LEAF   CROP N     STRESS      STRESS                                           
   DATE  AGE STAGE        kg/ha    LAI   NUM  kg/ha  %   H2O  Nitr Phos1 Phos2  RSTG                                   
 ------  --- ----------   -----  -----  ----  ---  ---  ----  ----  ----  ----  ----                                   
 18 MAR    0 Start Sim        0   0.00   0.0    0  0.0  0.00  0.00  0.00  0.00     7
 17 APR    0 Sowing           0   0.00   0.0    0  0.0  0.00  0.00  0.00  0.00     8
 18 APR    1 Germinate        0   0.00   0.0    0  0.0  0.00  0.00  0.00  0.00     9
 23 APR    6 Emergence       25   0.00   2.1    1  4.4  0.00  0.01  0.00  0.00     1
  6 MAY   19 End Juveni      73   0.16   7.7    3  3.7  0.00  0.00  0.00  0.00     2
 13 MAY   26 Floral Ini     225   0.43  10.4    8  3.6  0.00  0.00  0.00  0.00     3
 19 JUN   63 75% Silkin    5949   3.03  21.8  118  2.0  0.00  0.00  0.00  0.00     4
 29 JUN   73 Beg Gr Fil    7495   2.59  21.8  118  1.6  0.35  0.00  0.00  0.00     5
 12 AUG  117 End Gr Fil    9594   0.46  21.8  122  1.3  0.84  0.00  0.00  0.00     6
 15 AUG  120 Maturity      9594   0.46  21.8  122  1.3  0.95  0.00  0.00  0.00    10
 15 AUG  120 Harvest       9594   0.46  21.8  122  1.3  0.00  0.00  0.00  0.00    10


*MAIN GROWTH AND DEVELOPMENT VARIABLES

@     VARIABLE                                         SIMULATED     MEASURED
      --------                                         ---------     --------
      Anthesis day (dap)                                      63          -99
      Physiological maturity day (dap)                       120          -99
      Yield at harvest maturity (kg [dm]/ha)                3426          -99
      Number at maturity (no/m2)                            2358          -99
      Unit wt at maturity (g [dm]/unit)                   0.1453          -99
      Number at maturity (no/unit)                         380.3          -99
      Tops weight at maturity (kg [dm]/ha)                  9594          -99
      By-product produced (stalk) at maturity (kg[dm]/ha    6218          -99
      Leaf area index, maximum                              3.18          -99
      Harvest index at maturity                            0.357          -99
      Grain N at maturity (kg/ha)                             63          -99
      Tops N at maturity (kg/ha)                             122          -99
      Stem N at maturity (kg/ha)                              59          -99
      Grain N at maturity (%)                                1.9          -99
      Tops weight at anthesis (kg [dm]/ha)                  5676          -99
      Tops N at anthesis (kg/ha)                             114          -99
      Leaf number per stem at maturity                     21.78          -99
      Emergence day (dap)                                      6          -99


*ENVIRONMENTAL AND STRESS FACTORS

 |-----Development Phase------|--------------------------------------Environment--------------------------------------|-----------------Stress-----------------|
                              |---------------Average--------------|-----Cumulative-----|--------Count of days--------|          (0=Min, 1=Max Stress)         |
                         Time  Temp  Temp  Temp Solar Photop                Evapo    Pot TMIN TMIN TMAX TMAX TMAX RAIN|----Water----|---Nitrogen--|-Phosphorus-|
                         Span   Max   Min  Mean   Rad  [day]    CO2   Rain  Trans     ET   <    <    >    >    >    >   Photo         Photo         Photo
                         days    邂    邂    邂 MJ/m2     hr    ppm     mm     mm     mm  0邂  2邂 30邂 32邂 34邂  0mm  synth Growth  synth Growth  synth Growth
----------------------------------------------------------------------------------------------------------------------------------------------------------------
 Emergence-End Juvenile    13  30.1  19.7  24.9  13.7  24.00  340.9   74.7   30.5   49.7    0    0    8    1    0    9  0.000  0.000  0.002  0.005  0.000  0.000
 End Juvenil-Floral Init    7  29.7  19.8  24.7  12.9  24.00  340.9   17.4   18.4   24.7    0    0    3    0    0    3  0.000  0.000  0.001  0.001  0.000  0.000
 Floral Init-End Lf Grow   37  29.7  19.3  24.5  15.4  24.00  341.0  169.2  135.6  140.9    0    0   13    0    0   19  0.000  0.000  0.000  0.000  0.000  0.000
 End Lf Grth-Beg Grn Fil   10  30.4  18.7  24.6  16.7  24.00  341.1   10.7   31.6   39.8    0    0    5    0    0    3  0.197  0.265  0.000  0.000  0.000  0.000
 Grain Filling Phase       44  32.3  18.1  25.2  19.1  24.00  341.1   38.1   57.5  212.6    0    0   42   22    6    9  0.783  0.833  0.000  0.000  0.000  0.000


 Planting to Harvest      120  30.9  18.9  24.9  16.5  24.00  341.0  319.2  288.0  505.8    0    0   77   26    8   48  0.327  0.351  0.000  0.001  0.000  0.000
----------------------------------------------------------------------------------------------------------------------------------------------------------------


*Resource Productivity
 Growing season length: 120 days 

 Precipitation during growing season       319.2 mm[rain]
   Dry Matter Productivity                  3.01 kg[DM]/m3[rain]          =   30.1 kg[DM]/ha per mm[rain]
   Yield Productivity                       1.07 kg[grain yield]/m3[rain] =   10.7 kg[yield]/ha per mm[rain]

 Evapotranspiration during growing season  288.0 mm[ET]
   Dry Matter Productivity                  3.33 kg[DM]/m3[ET]            =   33.3 kg[DM]/ha per mm[ET]
   Yield Productivity                       1.19 kg[grain yield]/m3[ET]   =   11.9 kg[yield]/ha per mm[ET]

 Transpiration during growing season       151.7 mm[EP]
   Dry Matter Productivity                  6.32 kg[DM]/m3[EP]            =   63.2 kg[DM]/ha per mm[EP]
   Yield Productivity                       2.26 kg[grain yield]/m3[EP]   =   22.6 kg[yield]/ha per mm[EP]

 N applied during growing season            161. kg[N applied]/ha
   Dry Matter Productivity                  59.6 kg[DM]/kg[N applied]
   Yield Productivity                       21.3 kg[yield]/kg[N applied]

 N uptake during growing season              133 kg[N uptake]/ha
   Dry Matter Productivity                  72.1 kg[DM]/kg[N uptake]
   Yield Productivity                       25.8 kg[yield]/kg[N uptake]

--------------------------------------------------------------------------------------------------------------

                     Maize YIELD :     3426 kg/ha    [Dry weight] 

**************************************************************************************************************

*DSSAT Cropping System Model Ver. 4.6.1.000 -release      OCT 02, 2017; 13:18:29
                                                                                
*RUN   5        : P04/22                    MZCER046 ANBU1982    5              
 MODEL          : MZCER046 - Maize                                              
 EXPERIMENT     : ANBU1982 MZ  Analisis a침os de bajo rendimiento Buga          
 DATA PATH      : C:\DSSAT46\maize\                                             
 TREATMENT  5   : P04/22                    MZCER046                            
                                                                                
                                                                                
 CROP           : Maize            CULTIVAR : DK7088           ECOTYPE :IB0001  
 STARTING DATE  : MAR 23 1982                                                   
 PLANTING DATE  : APR 22 1982        PLANTS/m2 :  6.2     ROW SPACING :  80.cm  
 WEATHER        : CUNI   1982                                                   
 SOIL           : CCBUGA2017     TEXTURE : CL    -   Suelo Buga MADR Fase I     
 SOIL INITIAL C : DEPTH: 90cm EXTR. H2O: 83.9mm  NO3:151.4kg/ha  NH4: 62.4kg/ha 
 WATER BALANCE  : RAINFED                                                       
 IRRIGATION     : NOT IRRIGATED                                                 
 NITROGEN BAL.  : SOIL-N & N-UPTAKE SIMULATION; NO N-FIXATION                   
 N-FERTILIZER   :      161 kg/ha IN     5 APPLICATIONS                          
 RESIDUE/MANURE : INITIAL :     0 kg/ha ;       0 kg/ha IN     0 APPLICATIONS   
 ENVIRONM. OPT. : DAYL=    0.00  SRAD=    0.00  TMAX=    0.00  TMIN=    0.00    
                  RAIN=    0.00  CO2 =    0.00  DEW =    0.00  WIND=    0.00    
 SIMULATION OPT : WATER   :Y  NITROGEN:Y  N-FIX:N  PHOSPH :N  PESTS  :N         
                  PHOTO   :C  ET      :R  INFIL:S  HYDROL :R  SOM    :G         
                  CO2 341ppm  NSWIT   :1  EVAP :S  SOIL   :2  STEMP  :D         
 MANAGEMENT OPT : PLANTING:R  IRRIG   :N  FERT :D  RESIDUE:R  HARVEST:M         
                  WEATHER :M  TILLAGE :N                                        
                                                                                
*SUMMARY OF SOIL AND GENETIC INPUT PARAMETERS                                   
                                                                                
   SOIL LOWER UPPER   SAT  EXTR  INIT   ROOT   BULK     pH    NO3    NH4    ORG 
  DEPTH LIMIT LIMIT    SW    SW    SW   DIST   DENS                          C  
   cm   cm3/cm3    cm3/cm3    cm3/cm3         g/cm3         ugN/g  ugN/g     %  
------------------------------------------------------------------------------- 
  0-  5 0.215 0.331 0.341 0.116 0.319   1.00   1.68   6.70  11.90   4.21   0.75 
  5- 15 0.215 0.331 0.341 0.116 0.319   1.00   1.68   6.70  11.90   4.21   0.75 
 15- 25 0.215 0.331 0.341 0.116 0.319   1.00   1.68   6.70  11.90   4.21   0.75 
 25- 35 0.181 0.291 0.364 0.110 0.331   0.50   1.61   7.20  12.15   4.32   0.53 
 35- 45 0.181 0.291 0.364 0.110 0.344   0.50   1.61   7.20  12.40   4.44   0.53 
 45- 67 0.096 0.169 0.404 0.073 0.290   0.27   1.51   7.00  10.67   4.47   0.05 
 67- 90 0.096 0.169 0.404 0.073 0.195   0.27   1.51   7.00   7.63   4.53   0.05 
                                                                                
TOT- 90  13.3  21.7  34.0   8.4  25.6  <--cm   -  kg/ha-->  151.4   62.4  51964 
SOIL ALBEDO    : 0.09      EVAPORATION LIMIT : 6.00         MIN. FACTOR  : 1.00 
RUNOFF CURVE # :76.00      DRAINAGE RATE     : 0.60         FERT. FACTOR : 1.00 
                                                                                
 Maize      CULTIVAR :CI0004-DK7088             ECOTYPE :IB0001                 
 P1     : 229.00  P2     : 0.3000  P5     : 971.00                              
 G2     : 957.00  G3     :  7.500  PHINT  : 45.000                              


*SIMULATED CROP AND SOIL STATUS AT MAIN DEVELOPMENT STAGES

 RUN NO.     5     P04/22                  

        CROP GROWTH     BIOMASS         LEAF   CROP N     STRESS      STRESS                                           
   DATE  AGE STAGE        kg/ha    LAI   NUM  kg/ha  %   H2O  Nitr Phos1 Phos2  RSTG                                   
 ------  --- ----------   -----  -----  ----  ---  ---  ----  ----  ----  ----  ----                                   
 23 MAR    0 Start Sim        0   0.00   0.0    0  0.0  0.00  0.00  0.00  0.00     7
 22 APR    0 Sowing           0   0.00   0.0    0  0.0  0.00  0.00  0.00  0.00     8
 23 APR    1 Germinate        0   0.00   0.0    0  0.0  0.00  0.00  0.00  0.00     9
 28 APR    6 Emergence       25   0.00   2.0    1  4.4  0.00  0.01  0.00  0.00     1
 11 MAY   19 End Juveni      63   0.14   7.6    2  3.3  0.00  0.00  0.00  0.00     2
 18 MAY   26 Floral Ini     224   0.43  10.3    8  3.6  0.00  0.00  0.00  0.00     3
 24 JUN   63 75% Silkin    6306   3.28  21.7  126  2.0  0.00  0.00  0.00  0.00     4
  4 JUL   73 Beg Gr Fil    6947   2.33  21.7  129  1.9  0.78  0.00  0.00  0.00     5
 17 AUG  117 End Gr Fil    8443   0.42  21.7  129  1.5  0.80  0.00  0.00  0.00     6
 19 AUG  119 Maturity      8443   0.42  21.7  129  1.5  0.00  0.00  0.00  0.00    10
 19 AUG  119 Harvest       8443   0.42  21.7  129  1.5  0.00  0.00  0.00  0.00    10


*MAIN GROWTH AND DEVELOPMENT VARIABLES

@     VARIABLE                                         SIMULATED     MEASURED
      --------                                         ---------     --------
      Anthesis day (dap)                                      63          -99
      Physiological maturity day (dap)                       119          -99
      Yield at harvest maturity (kg [dm]/ha)                2757          -99
      Number at maturity (no/m2)                            1465          -99
      Unit wt at maturity (g [dm]/unit)                   0.1883          -99
      Number at maturity (no/unit)                         236.2          -99
      Tops weight at maturity (kg [dm]/ha)                  8443          -99
      By-product produced (stalk) at maturity (kg[dm]/ha    5740          -99
      Leaf area index, maximum                              3.44          -99
      Harvest index at maturity                            0.327          -99
      Grain N at maturity (kg/ha)                             51          -99
      Tops N at maturity (kg/ha)                             129          -99
      Stem N at maturity (kg/ha)                              77          -99
      Grain N at maturity (%)                                1.9          -99
      Tops weight at anthesis (kg [dm]/ha)                  6124          -99
      Tops N at anthesis (kg/ha)                             126          -99
      Leaf number per stem at maturity                     21.69          -99
      Emergence day (dap)                                      6          -99


*ENVIRONMENTAL AND STRESS FACTORS

 |-----Development Phase------|--------------------------------------Environment--------------------------------------|-----------------Stress-----------------|
                              |---------------Average--------------|-----Cumulative-----|--------Count of days--------|          (0=Min, 1=Max Stress)         |
                         Time  Temp  Temp  Temp Solar Photop                Evapo    Pot TMIN TMIN TMAX TMAX TMAX RAIN|----Water----|---Nitrogen--|-Phosphorus-|
                         Span   Max   Min  Mean   Rad  [day]    CO2   Rain  Trans     ET   <    <    >    >    >    >   Photo         Photo         Photo
                         days    邂    邂    邂 MJ/m2     hr    ppm     mm     mm     mm  0邂  2邂 30邂 32邂 34邂  0mm  synth Growth  synth Growth  synth Growth
----------------------------------------------------------------------------------------------------------------------------------------------------------------
 Emergence-End Juvenile    13  29.4  19.8  24.6  12.4  24.00  340.9   84.5   37.8   44.8    0    0    5    0    0    8  0.000  0.000  0.002  0.005  0.000  0.000
 End Juvenil-Floral Init    7  30.4  19.5  24.9  15.7  24.00  340.9   57.0   20.5   30.1    0    0    4    0    0    5  0.000  0.000  0.000  0.001  0.000  0.000
 Floral Init-End Lf Grow   37  29.8  19.2  24.5  15.3  24.00  341.0  127.1  138.4  140.0    0    0   13    0    0   18  0.000  0.000  0.000  0.000  0.000  0.000
 End Lf Grth-Beg Grn Fil   10  31.6  18.6  25.1  18.1  24.00  341.1    0.0   20.4   43.6    0    0    8    3    1    0  0.589  0.706  0.000  0.000  0.000  0.000
 Grain Filling Phase       44  32.5  18.2  25.3  19.2  24.00  341.1   65.5   56.7  216.6    0    0   42   24    8   11  0.778  0.822  0.000  0.000  0.000  0.000


 Planting to Harvest      119  31.1  18.9  25.0  16.8  24.00  341.0  338.8  290.1  513.3    0    0   79   30   10   46  0.337  0.363  0.000  0.001  0.000  0.000
----------------------------------------------------------------------------------------------------------------------------------------------------------------


*Resource Productivity
 Growing season length: 119 days 

 Precipitation during growing season       338.8 mm[rain]
   Dry Matter Productivity                  2.49 kg[DM]/m3[rain]          =   24.9 kg[DM]/ha per mm[rain]
   Yield Productivity                       0.81 kg[grain yield]/m3[rain] =    8.1 kg[yield]/ha per mm[rain]

 Evapotranspiration during growing season  290.1 mm[ET]
   Dry Matter Productivity                  2.91 kg[DM]/m3[ET]            =   29.1 kg[DM]/ha per mm[ET]
   Yield Productivity                       0.95 kg[grain yield]/m3[ET]   =    9.5 kg[yield]/ha per mm[ET]

 Transpiration during growing season       144.3 mm[EP]
   Dry Matter Productivity                  5.85 kg[DM]/m3[EP]            =   58.5 kg[DM]/ha per mm[EP]
   Yield Productivity                       1.91 kg[grain yield]/m3[EP]   =   19.1 kg[yield]/ha per mm[EP]

 N applied during growing season            161. kg[N applied]/ha
   Dry Matter Productivity                  52.4 kg[DM]/kg[N applied]
   Yield Productivity                       17.1 kg[yield]/kg[N applied]

 N uptake during growing season              137 kg[N uptake]/ha
   Dry Matter Productivity                  61.6 kg[DM]/kg[N uptake]
   Yield Productivity                       20.1 kg[yield]/kg[N uptake]

--------------------------------------------------------------------------------------------------------------

                     Maize YIELD :     2757 kg/ha    [Dry weight] 

**************************************************************************************************************

*DSSAT Cropping System Model Ver. 4.6.1.000 -release      OCT 02, 2017; 13:18:29
                                                                                
*RUN   6        : P04/27                    MZCER046 ANBU1982    6              
 MODEL          : MZCER046 - Maize                                              
 EXPERIMENT     : ANBU1982 MZ  Analisis a침os de bajo rendimiento Buga          
 DATA PATH      : C:\DSSAT46\maize\                                             
 TREATMENT  6   : P04/27                    MZCER046                            
                                                                                
                                                                                
 CROP           : Maize            CULTIVAR : DK7088           ECOTYPE :IB0001  
 STARTING DATE  : MAR 28 1982                                                   
 PLANTING DATE  : APR 27 1982        PLANTS/m2 :  6.2     ROW SPACING :  80.cm  
 WEATHER        : CUNI   1982                                                   
 SOIL           : CCBUGA2017     TEXTURE : CL    -   Suelo Buga MADR Fase I     
 SOIL INITIAL C : DEPTH: 90cm EXTR. H2O: 83.9mm  NO3:151.4kg/ha  NH4: 62.4kg/ha 
 WATER BALANCE  : RAINFED                                                       
 IRRIGATION     : NOT IRRIGATED                                                 
 NITROGEN BAL.  : SOIL-N & N-UPTAKE SIMULATION; NO N-FIXATION                   
 N-FERTILIZER   :      161 kg/ha IN     5 APPLICATIONS                          
 RESIDUE/MANURE : INITIAL :     0 kg/ha ;       0 kg/ha IN     0 APPLICATIONS   
 ENVIRONM. OPT. : DAYL=    0.00  SRAD=    0.00  TMAX=    0.00  TMIN=    0.00    
                  RAIN=    0.00  CO2 =    0.00  DEW =    0.00  WIND=    0.00    
 SIMULATION OPT : WATER   :Y  NITROGEN:Y  N-FIX:N  PHOSPH :N  PESTS  :N         
                  PHOTO   :C  ET      :R  INFIL:S  HYDROL :R  SOM    :G         
                  CO2 341ppm  NSWIT   :1  EVAP :S  SOIL   :2  STEMP  :D         
 MANAGEMENT OPT : PLANTING:R  IRRIG   :N  FERT :D  RESIDUE:R  HARVEST:M         
                  WEATHER :M  TILLAGE :N                                        
                                                                                
*SUMMARY OF SOIL AND GENETIC INPUT PARAMETERS                                   
                                                                                
   SOIL LOWER UPPER   SAT  EXTR  INIT   ROOT   BULK     pH    NO3    NH4    ORG 
  DEPTH LIMIT LIMIT    SW    SW    SW   DIST   DENS                          C  
   cm   cm3/cm3    cm3/cm3    cm3/cm3         g/cm3         ugN/g  ugN/g     %  
------------------------------------------------------------------------------- 
  0-  5 0.215 0.331 0.341 0.116 0.319   1.00   1.68   6.70  11.90   4.21   0.75 
  5- 15 0.215 0.331 0.341 0.116 0.319   1.00   1.68   6.70  11.90   4.21   0.75 
 15- 25 0.215 0.331 0.341 0.116 0.319   1.00   1.68   6.70  11.90   4.21   0.75 
 25- 35 0.181 0.291 0.364 0.110 0.331   0.50   1.61   7.20  12.15   4.32   0.53 
 35- 45 0.181 0.291 0.364 0.110 0.344   0.50   1.61   7.20  12.40   4.44   0.53 
 45- 67 0.096 0.169 0.404 0.073 0.290   0.27   1.51   7.00  10.67   4.47   0.05 
 67- 90 0.096 0.169 0.404 0.073 0.195   0.27   1.51   7.00   7.63   4.53   0.05 
                                                                                
TOT- 90  13.3  21.7  34.0   8.4  25.6  <--cm   -  kg/ha-->  151.4   62.4  51964 
SOIL ALBEDO    : 0.09      EVAPORATION LIMIT : 6.00         MIN. FACTOR  : 1.00 
RUNOFF CURVE # :76.00      DRAINAGE RATE     : 0.60         FERT. FACTOR : 1.00 
                                                                                
 Maize      CULTIVAR :CI0004-DK7088             ECOTYPE :IB0001                 
 P1     : 229.00  P2     : 0.3000  P5     : 971.00                              
 G2     : 957.00  G3     :  7.500  PHINT  : 45.000                              


*SIMULATED CROP AND SOIL STATUS AT MAIN DEVELOPMENT STAGES

 RUN NO.     6     P04/27                  

        CROP GROWTH     BIOMASS         LEAF   CROP N     STRESS      STRESS                                           
   DATE  AGE STAGE        kg/ha    LAI   NUM  kg/ha  %   H2O  Nitr Phos1 Phos2  RSTG                                   
 ------  --- ----------   -----  -----  ----  ---  ---  ----  ----  ----  ----  ----                                   
 28 MAR    0 Start Sim        0   0.00   0.0    0  0.0  0.00  0.00  0.00  0.00     7
 27 APR    0 Sowing           0   0.00   0.0    0  0.0  0.00  0.00  0.00  0.00     8
 28 APR    1 Germinate        0   0.00   0.0    0  0.0  0.00  0.00  0.00  0.00     9
  3 MAY    6 Emergence       25   0.00   2.1    1  4.4  0.00  0.01  0.00  0.00     1
 16 MAY   19 End Juveni      77   0.17   7.7    3  3.4  0.00  0.00  0.00  0.00     2
 23 MAY   26 Floral Ini     216   0.42  10.3    8  3.6  0.00  0.00  0.00  0.00     3
 29 JUN   63 75% Silkin    6036   3.06  21.3  129  2.1  0.11  0.00  0.00  0.00     4
  9 JUL   73 Beg Gr Fil    7224   2.44  21.3  129  1.8  0.53  0.00  0.00  0.00     5
 21 AUG  116 End Gr Fil    8729   0.46  21.3  129  1.5  0.80  0.00  0.00  0.00     6
 23 AUG  118 Maturity      8729   0.46  21.3  129  1.5  0.78  0.00  0.00  0.00    10
 23 AUG  118 Harvest       8729   0.46  21.3  129  1.5  0.00  0.00  0.00  0.00    10


*MAIN GROWTH AND DEVELOPMENT VARIABLES

@     VARIABLE                                         SIMULATED     MEASURED
      --------                                         ---------     --------
      Anthesis day (dap)                                      63          -99
      Physiological maturity day (dap)                       118          -99
      Yield at harvest maturity (kg [dm]/ha)                2675          -99
      Number at maturity (no/m2)                            1895          -99
      Unit wt at maturity (g [dm]/unit)                   0.1411          -99
      Number at maturity (no/unit)                         305.6          -99
      Tops weight at maturity (kg [dm]/ha)                  8729          -99
      By-product produced (stalk) at maturity (kg[dm]/ha    6111          -99
      Leaf area index, maximum                              3.43          -99
      Harvest index at maturity                            0.306          -99
      Grain N at maturity (kg/ha)                             50          -99
      Tops N at maturity (kg/ha)                             129          -99
      Stem N at maturity (kg/ha)                              79          -99
      Grain N at maturity (%)                                1.9          -99
      Tops weight at anthesis (kg [dm]/ha)                  5952          -99
      Tops N at anthesis (kg/ha)                             128          -99
      Leaf number per stem at maturity                     21.34          -99
      Emergence day (dap)                                      6          -99


*ENVIRONMENTAL AND STRESS FACTORS

 |-----Development Phase------|--------------------------------------Environment--------------------------------------|-----------------Stress-----------------|
                              |---------------Average--------------|-----Cumulative-----|--------Count of days--------|          (0=Min, 1=Max Stress)         |
                         Time  Temp  Temp  Temp Solar Photop                Evapo    Pot TMIN TMIN TMAX TMAX TMAX RAIN|----Water----|---Nitrogen--|-Phosphorus-|
                         Span   Max   Min  Mean   Rad  [day]    CO2   Rain  Trans     ET   <    <    >    >    >    >   Photo         Photo         Photo
                         days    邂    邂    邂 MJ/m2     hr    ppm     mm     mm     mm  0邂  2邂 30邂 32邂 34邂  0mm  synth Growth  synth Growth  synth Growth
----------------------------------------------------------------------------------------------------------------------------------------------------------------
 Emergence-End Juvenile    13  30.1  19.9  25.0  13.6  24.00  340.9   37.1   36.8   49.6    0    0    7    0    0    8  0.000  0.000  0.002  0.005  0.000  0.000
 End Juvenil-Floral Init    7  28.8  19.3  24.0  14.1  24.00  341.0  100.4   26.5   26.5    0    0    0    0    0    6  0.000  0.000  0.000  0.001  0.000  0.000
 Floral Init-End Lf Grow   37  30.1  19.1  24.6  16.0  24.00  341.0   67.8  132.8  146.1    0    0   16    0    0   13  0.057  0.086  0.000  0.000  0.000  0.000
 End Lf Grth-Beg Grn Fil   10  31.8  18.3  25.1  18.3  24.00  341.1   25.6   27.6   44.2    0    0   10    3    1    2  0.442  0.528  0.000  0.000  0.000  0.000
 Grain Filling Phase       43  32.8  18.3  25.5  19.5  24.00  341.1   39.9   51.3  216.1    0    0   41   28   10    9  0.773  0.810  0.000  0.000  0.000  0.000


 Planting to Harvest      118  31.2  18.8  25.0  17.0  24.00  341.0  336.7  291.9  515.6    0    0   79   33   12   44  0.343  0.376  0.000  0.001  0.000  0.000
----------------------------------------------------------------------------------------------------------------------------------------------------------------


*Resource Productivity
 Growing season length: 118 days 

 Precipitation during growing season       336.7 mm[rain]
   Dry Matter Productivity                  2.59 kg[DM]/m3[rain]          =   25.9 kg[DM]/ha per mm[rain]
   Yield Productivity                       0.79 kg[grain yield]/m3[rain] =    7.9 kg[yield]/ha per mm[rain]

 Evapotranspiration during growing season  291.9 mm[ET]
   Dry Matter Productivity                  2.99 kg[DM]/m3[ET]            =   29.9 kg[DM]/ha per mm[ET]
   Yield Productivity                       0.92 kg[grain yield]/m3[ET]   =    9.2 kg[yield]/ha per mm[ET]

 Transpiration during growing season       139.6 mm[EP]
   Dry Matter Productivity                  6.25 kg[DM]/m3[EP]            =   62.5 kg[DM]/ha per mm[EP]
   Yield Productivity                       1.92 kg[grain yield]/m3[EP]   =   19.2 kg[yield]/ha per mm[EP]

 N applied during growing season            161. kg[N applied]/ha
   Dry Matter Productivity                  54.2 kg[DM]/kg[N applied]
   Yield Productivity                       16.6 kg[yield]/kg[N applied]

 N uptake during growing season              137 kg[N uptake]/ha
   Dry Matter Productivity                  63.7 kg[DM]/kg[N uptake]
   Yield Productivity                       19.5 kg[yield]/kg[N uptake]

--------------------------------------------------------------------------------------------------------------

                     Maize YIELD :     2675 kg/ha    [Dry weight] 

**************************************************************************************************************

*DSSAT Cropping System Model Ver. 4.6.1.000 -release      OCT 02, 2017; 13:18:29
                                                                                
*RUN   7        : P05/02                    MZCER046 ANBU1982    7              
 MODEL          : MZCER046 - Maize                                              
 EXPERIMENT     : ANBU1982 MZ  Analisis a침os de bajo rendimiento Buga          
 DATA PATH      : C:\DSSAT46\maize\                                             
 TREATMENT  7   : P05/02                    MZCER046                            
                                                                                
                                                                                
 CROP           : Maize            CULTIVAR : DK7088           ECOTYPE :IB0001  
 STARTING DATE  : APR  2 1982                                                   
 PLANTING DATE  : MAY  2 1982        PLANTS/m2 :  6.2     ROW SPACING :  80.cm  
 WEATHER        : CUNI   1982                                                   
 SOIL           : CCBUGA2017     TEXTURE : CL    -   Suelo Buga MADR Fase I     
 SOIL INITIAL C : DEPTH: 90cm EXTR. H2O: 83.9mm  NO3:151.4kg/ha  NH4: 62.4kg/ha 
 WATER BALANCE  : RAINFED                                                       
 IRRIGATION     : NOT IRRIGATED                                                 
 NITROGEN BAL.  : SOIL-N & N-UPTAKE SIMULATION; NO N-FIXATION                   
 N-FERTILIZER   :      161 kg/ha IN     5 APPLICATIONS                          
 RESIDUE/MANURE : INITIAL :     0 kg/ha ;       0 kg/ha IN     0 APPLICATIONS   
 ENVIRONM. OPT. : DAYL=    0.00  SRAD=    0.00  TMAX=    0.00  TMIN=    0.00    
                  RAIN=    0.00  CO2 =    0.00  DEW =    0.00  WIND=    0.00    
 SIMULATION OPT : WATER   :Y  NITROGEN:Y  N-FIX:N  PHOSPH :N  PESTS  :N         
                  PHOTO   :C  ET      :R  INFIL:S  HYDROL :R  SOM    :G         
                  CO2 341ppm  NSWIT   :1  EVAP :S  SOIL   :2  STEMP  :D         
 MANAGEMENT OPT : PLANTING:R  IRRIG   :N  FERT :D  RESIDUE:R  HARVEST:M         
                  WEATHER :M  TILLAGE :N                                        
                                                                                
*SUMMARY OF SOIL AND GENETIC INPUT PARAMETERS                                   
                                                                                
   SOIL LOWER UPPER   SAT  EXTR  INIT   ROOT   BULK     pH    NO3    NH4    ORG 
  DEPTH LIMIT LIMIT    SW    SW    SW   DIST   DENS                          C  
   cm   cm3/cm3    cm3/cm3    cm3/cm3         g/cm3         ugN/g  ugN/g     %  
------------------------------------------------------------------------------- 
  0-  5 0.215 0.331 0.341 0.116 0.319   1.00   1.68   6.70  11.90   4.21   0.75 
  5- 15 0.215 0.331 0.341 0.116 0.319   1.00   1.68   6.70  11.90   4.21   0.75 
 15- 25 0.215 0.331 0.341 0.116 0.319   1.00   1.68   6.70  11.90   4.21   0.75 
 25- 35 0.181 0.291 0.364 0.110 0.331   0.50   1.61   7.20  12.15   4.32   0.53 
 35- 45 0.181 0.291 0.364 0.110 0.344   0.50   1.61   7.20  12.40   4.44   0.53 
 45- 67 0.096 0.169 0.404 0.073 0.290   0.27   1.51   7.00  10.67   4.47   0.05 
 67- 90 0.096 0.169 0.404 0.073 0.195   0.27   1.51   7.00   7.63   4.53   0.05 
                                                                                
TOT- 90  13.3  21.7  34.0   8.4  25.6  <--cm   -  kg/ha-->  151.4   62.4  51964 
SOIL ALBEDO    : 0.09      EVAPORATION LIMIT : 6.00         MIN. FACTOR  : 1.00 
RUNOFF CURVE # :76.00      DRAINAGE RATE     : 0.60         FERT. FACTOR : 1.00 
                                                                                
 Maize      CULTIVAR :CI0004-DK7088             ECOTYPE :IB0001                 
 P1     : 229.00  P2     : 0.3000  P5     : 971.00                              
 G2     : 957.00  G3     :  7.500  PHINT  : 45.000                              


*SIMULATED CROP AND SOIL STATUS AT MAIN DEVELOPMENT STAGES

 RUN NO.     7     P05/02                  

        CROP GROWTH     BIOMASS         LEAF   CROP N     STRESS      STRESS                                           
   DATE  AGE STAGE        kg/ha    LAI   NUM  kg/ha  %   H2O  Nitr Phos1 Phos2  RSTG                                   
 ------  --- ----------   -----  -----  ----  ---  ---  ----  ----  ----  ----  ----                                   
  2 APR    0 Start Sim        0   0.00   0.0    0  0.0  0.00  0.00  0.00  0.00     7
  2 MAY    0 Sowing           0   0.00   0.0    0  0.0  0.00  0.00  0.00  0.00     8
  3 MAY    1 Germinate        0   0.00   0.0    0  0.0  0.00  0.00  0.00  0.00     9
  8 MAY    6 Emergence       25   0.00   2.0    1  4.4  0.00  0.01  0.00  0.00     1
 21 MAY   19 End Juveni      69   0.15   7.6    2  3.5  0.00  0.00  0.00  0.00     2
 28 MAY   26 Floral Ini     228   0.44  10.2    8  3.6  0.00  0.00  0.00  0.00     3
  3 JUL   62 75% Silkin    5320   2.74  21.3  116  2.2  0.17  0.00  0.00  0.00     4
 13 JUL   72 Beg Gr Fil    6732   2.29  21.3  116  1.7  0.45  0.00  0.00  0.00     5
 25 AUG  115 End Gr Fil    8102   0.43  21.3  116  1.4  0.82  0.00  0.00  0.00     6
 27 AUG  117 Maturity      8102   0.43  21.3  116  1.4  0.92  0.00  0.00  0.00    10
 27 AUG  117 Harvest       8102   0.43  21.3  116  1.4  0.00  0.00  0.00  0.00    10


*MAIN GROWTH AND DEVELOPMENT VARIABLES

@     VARIABLE                                         SIMULATED     MEASURED
      --------                                         ---------     --------
      Anthesis day (dap)                                      62          -99
      Physiological maturity day (dap)                       117          -99
      Yield at harvest maturity (kg [dm]/ha)                2520          -99
      Number at maturity (no/m2)                            2083          -99
      Unit wt at maturity (g [dm]/unit)                   0.1209          -99
      Number at maturity (no/unit)                         336.0          -99
      Tops weight at maturity (kg [dm]/ha)                  8102          -99
      By-product produced (stalk) at maturity (kg[dm]/ha    5637          -99
      Leaf area index, maximum                              3.30          -99
      Harvest index at maturity                            0.311          -99
      Grain N at maturity (kg/ha)                             47          -99
      Tops N at maturity (kg/ha)                             116          -99
      Stem N at maturity (kg/ha)                              70          -99
      Grain N at maturity (%)                                1.9          -99
      Tops weight at anthesis (kg [dm]/ha)                  5265          -99
      Tops N at anthesis (kg/ha)                             116          -99
      Leaf number per stem at maturity                     21.29          -99
      Emergence day (dap)                                      6          -99


*ENVIRONMENTAL AND STRESS FACTORS

 |-----Development Phase------|--------------------------------------Environment--------------------------------------|-----------------Stress-----------------|
                              |---------------Average--------------|-----Cumulative-----|--------Count of days--------|          (0=Min, 1=Max Stress)         |
                         Time  Temp  Temp  Temp Solar Photop                Evapo    Pot TMIN TMIN TMAX TMAX TMAX RAIN|----Water----|---Nitrogen--|-Phosphorus-|
                         Span   Max   Min  Mean   Rad  [day]    CO2   Rain  Trans     ET   <    <    >    >    >    >   Photo         Photo         Photo
                         days    邂    邂    邂 MJ/m2     hr    ppm     mm     mm     mm  0邂  2邂 30邂 32邂 34邂  0mm  synth Growth  synth Growth  synth Growth
----------------------------------------------------------------------------------------------------------------------------------------------------------------
 Emergence-End Juvenile    13  29.6  19.6  24.6  14.5  24.00  340.9   87.9   41.0   52.4    0    0    4    0    0    9  0.000  0.000  0.002  0.005  0.000  0.000
 End Juvenil-Floral Init    7  28.7  19.5  24.1  14.6  24.00  341.0   53.8   27.6   27.6    0    0    0    0    0    5  0.000  0.000  0.000  0.001  0.000  0.000
 Floral Init-End Lf Grow   36  30.5  19.0  24.7  16.3  24.00  341.0   50.6  117.6  144.5    0    0   20    3    1   10  0.117  0.152  0.000  0.000  0.000  0.000
 End Lf Grth-Beg Grn Fil   10  31.2  18.6  24.9  17.9  24.00  341.1   30.6   30.5   43.1    0    0    9    1    0    4  0.348  0.447  0.000  0.000  0.000  0.000
 Grain Filling Phase       43  33.1  18.3  25.7  19.8  24.00  341.1   35.2   48.2  222.2    0    0   42   31   12    8  0.778  0.814  0.000  0.000  0.000  0.000


 Planting to Harvest      117  31.4  18.8  25.1  17.4  24.00  341.0  272.2  287.0  524.2    0    0   80   37   15   40  0.366  0.400  0.000  0.001  0.000  0.000
----------------------------------------------------------------------------------------------------------------------------------------------------------------


*Resource Productivity
 Growing season length: 117 days 

 Precipitation during growing season       272.2 mm[rain]
   Dry Matter Productivity                  2.98 kg[DM]/m3[rain]          =   29.8 kg[DM]/ha per mm[rain]
   Yield Productivity                       0.93 kg[grain yield]/m3[rain] =    9.3 kg[yield]/ha per mm[rain]

 Evapotranspiration during growing season  287.0 mm[ET]
   Dry Matter Productivity                  2.82 kg[DM]/m3[ET]            =   28.2 kg[DM]/ha per mm[ET]
   Yield Productivity                       0.88 kg[grain yield]/m3[ET]   =    8.8 kg[yield]/ha per mm[ET]

 Transpiration during growing season       131.1 mm[EP]
   Dry Matter Productivity                  6.18 kg[DM]/m3[EP]            =   61.8 kg[DM]/ha per mm[EP]
   Yield Productivity                       1.92 kg[grain yield]/m3[EP]   =   19.2 kg[yield]/ha per mm[EP]

 N applied during growing season            161. kg[N applied]/ha
   Dry Matter Productivity                  50.3 kg[DM]/kg[N applied]
   Yield Productivity                       15.7 kg[yield]/kg[N applied]

 N uptake during growing season              127 kg[N uptake]/ha
   Dry Matter Productivity                  63.8 kg[DM]/kg[N uptake]
   Yield Productivity                       19.8 kg[yield]/kg[N uptake]

--------------------------------------------------------------------------------------------------------------

                     Maize YIELD :     2520 kg/ha    [Dry weight] 

**************************************************************************************************************

*DSSAT Cropping System Model Ver. 4.6.1.000 -release      OCT 02, 2017; 13:18:29
                                                                                
*RUN   8        : P05/07                    MZCER046 ANBU1982    8              
 MODEL          : MZCER046 - Maize                                              
 EXPERIMENT     : ANBU1982 MZ  Analisis a침os de bajo rendimiento Buga          
 DATA PATH      : C:\DSSAT46\maize\                                             
 TREATMENT  8   : P05/07                    MZCER046                            
                                                                                
                                                                                
 CROP           : Maize            CULTIVAR : DK7088           ECOTYPE :IB0001  
 STARTING DATE  : APR  7 1982                                                   
 PLANTING DATE  : MAY  7 1982        PLANTS/m2 :  6.2     ROW SPACING :  80.cm  
 WEATHER        : CUNI   1982                                                   
 SOIL           : CCBUGA2017     TEXTURE : CL    -   Suelo Buga MADR Fase I     
 SOIL INITIAL C : DEPTH: 90cm EXTR. H2O: 83.9mm  NO3:151.4kg/ha  NH4: 62.4kg/ha 
 WATER BALANCE  : RAINFED                                                       
 IRRIGATION     : NOT IRRIGATED                                                 
 NITROGEN BAL.  : SOIL-N & N-UPTAKE SIMULATION; NO N-FIXATION                   
 N-FERTILIZER   :      161 kg/ha IN     5 APPLICATIONS                          
 RESIDUE/MANURE : INITIAL :     0 kg/ha ;       0 kg/ha IN     0 APPLICATIONS   
 ENVIRONM. OPT. : DAYL=    0.00  SRAD=    0.00  TMAX=    0.00  TMIN=    0.00    
                  RAIN=    0.00  CO2 =    0.00  DEW =    0.00  WIND=    0.00    
 SIMULATION OPT : WATER   :Y  NITROGEN:Y  N-FIX:N  PHOSPH :N  PESTS  :N         
                  PHOTO   :C  ET      :R  INFIL:S  HYDROL :R  SOM    :G         
                  CO2 341ppm  NSWIT   :1  EVAP :S  SOIL   :2  STEMP  :D         
 MANAGEMENT OPT : PLANTING:R  IRRIG   :N  FERT :D  RESIDUE:R  HARVEST:M         
                  WEATHER :M  TILLAGE :N                                        
                                                                                
*SUMMARY OF SOIL AND GENETIC INPUT PARAMETERS                                   
                                                                                
   SOIL LOWER UPPER   SAT  EXTR  INIT   ROOT   BULK     pH    NO3    NH4    ORG 
  DEPTH LIMIT LIMIT    SW    SW    SW   DIST   DENS                          C  
   cm   cm3/cm3    cm3/cm3    cm3/cm3         g/cm3         ugN/g  ugN/g     %  
------------------------------------------------------------------------------- 
  0-  5 0.215 0.331 0.341 0.116 0.319   1.00   1.68   6.70  11.90   4.21   0.75 
  5- 15 0.215 0.331 0.341 0.116 0.319   1.00   1.68   6.70  11.90   4.21   0.75 
 15- 25 0.215 0.331 0.341 0.116 0.319   1.00   1.68   6.70  11.90   4.21   0.75 
 25- 35 0.181 0.291 0.364 0.110 0.331   0.50   1.61   7.20  12.15   4.32   0.53 
 35- 45 0.181 0.291 0.364 0.110 0.344   0.50   1.61   7.20  12.40   4.44   0.53 
 45- 67 0.096 0.169 0.404 0.073 0.290   0.27   1.51   7.00  10.67   4.47   0.05 
 67- 90 0.096 0.169 0.404 0.073 0.195   0.27   1.51   7.00   7.63   4.53   0.05 
                                                                                
TOT- 90  13.3  21.7  34.0   8.4  25.6  <--cm   -  kg/ha-->  151.4   62.4  51964 
SOIL ALBEDO    : 0.09      EVAPORATION LIMIT : 6.00         MIN. FACTOR  : 1.00 
RUNOFF CURVE # :76.00      DRAINAGE RATE     : 0.60         FERT. FACTOR : 1.00 
                                                                                
 Maize      CULTIVAR :CI0004-DK7088             ECOTYPE :IB0001                 
 P1     : 229.00  P2     : 0.3000  P5     : 971.00                              
 G2     : 957.00  G3     :  7.500  PHINT  : 45.000                              


*SIMULATED CROP AND SOIL STATUS AT MAIN DEVELOPMENT STAGES

 RUN NO.     8     P05/07                  

        CROP GROWTH     BIOMASS         LEAF   CROP N     STRESS      STRESS                                           
   DATE  AGE STAGE        kg/ha    LAI   NUM  kg/ha  %   H2O  Nitr Phos1 Phos2  RSTG                                   
 ------  --- ----------   -----  -----  ----  ---  ---  ----  ----  ----  ----  ----                                   
  7 APR    0 Start Sim        0   0.00   0.0    0  0.0  0.00  0.00  0.00  0.00     7
  7 MAY    0 Sowing           0   0.00   0.0    0  0.0  0.00  0.00  0.00  0.00     8
  8 MAY    1 Germinate        0   0.00   0.0    0  0.0  0.00  0.00  0.00  0.00     9
 13 MAY    6 Emergence       25   0.00   2.1    1  4.4  0.00  0.01  0.00  0.00     1
 26 MAY   19 End Juveni      69   0.15   7.5    2  3.3  0.00  0.00  0.00  0.00     2
  2 JUN   26 Floral Ini     247   0.47  10.2    9  3.6  0.00  0.00  0.00  0.00     3
  8 JUL   62 75% Silkin    5783   2.96  21.4  115  2.0  0.19  0.00  0.00  0.00     4
 18 JUL   72 Beg Gr Fil    6250   2.10  21.4  117  1.9  0.75  0.00  0.00  0.00     5
 29 AUG  114 End Gr Fil    7494   0.40  21.4  117  1.6  0.83  0.00  0.00  0.00     6
  1 SEP  117 Maturity      7494   0.40  21.4  117  1.6  0.32  0.00  0.00  0.00    10
[...]
 NITROGEN BAL.  : SOIL-N & N-UPTAKE SIMULATION; NO N-FIXATION                   
 N-FERTILIZER   :      161 kg/ha IN     5 APPLICATIONS                          
 RESIDUE/MANURE : INITIAL :     0 kg/ha ;       0 kg/ha IN     0 APPLICATIONS   
 ENVIRONM. OPT. : DAYL=    0.00  SRAD=    0.00  TMAX=    0.00  TMIN=    0.00    
                  RAIN=    0.00  CO2 =    0.00  DEW =    0.00  WIND=    0.00    
 SIMULATION OPT : WATER   :Y  NITROGEN:Y  N-FIX:N  PHOSPH :N  PESTS  :N         
                  PHOTO   :C  ET      :R  INFIL:S  HYDROL :R  SOM    :G         
                  CO2 341ppm  NSWIT   :1  EVAP :S  SOIL   :2  STEMP  :D         
 MANAGEMENT OPT : PLANTING:R  IRRIG   :N  FERT :D  RESIDUE:R  HARVEST:M         
                  WEATHER :M  TILLAGE :N                                        
                                                                                
*SUMMARY OF SOIL AND GENETIC INPUT PARAMETERS                                   
                                                                                
   SOIL LOWER UPPER   SAT  EXTR  INIT   ROOT   BULK     pH    NO3    NH4    ORG 
  DEPTH LIMIT LIMIT    SW    SW    SW   DIST   DENS                          C  
   cm   cm3/cm3    cm3/cm3    cm3/cm3         g/cm3         ugN/g  ugN/g     %  
------------------------------------------------------------------------------- 
  0-  5 0.215 0.331 0.341 0.116 0.319   1.00   1.68   6.70  11.90   4.21   0.75 
  5- 15 0.215 0.331 0.341 0.116 0.319   1.00   1.68   6.70  11.90   4.21   0.75 
 15- 25 0.215 0.331 0.341 0.116 0.319   1.00   1.68   6.70  11.90   4.21   0.75 
 25- 35 0.181 0.291 0.364 0.110 0.331   0.50   1.61   7.20  12.15   4.32   0.53 
 35- 45 0.181 0.291 0.364 0.110 0.344   0.50   1.61   7.20  12.40   4.44   0.53 
 45- 67 0.096 0.169 0.404 0.073 0.290   0.27   1.51   7.00  10.67   4.47   0.05 
 67- 90 0.096 0.169 0.404 0.073 0.195   0.27   1.51   7.00   7.63   4.53   0.05 
                                                                                
TOT- 90  13.3  21.7  34.0   8.4  25.6  <--cm   -  kg/ha-->  151.4   62.4  51964 
SOIL ALBEDO    : 0.09      EVAPORATION LIMIT : 6.00         MIN. FACTOR  : 1.00 
RUNOFF CURVE # :76.00      DRAINAGE RATE     : 0.60         FERT. FACTOR : 1.00 
                                                                                
 Maize      CULTIVAR :CI0004-DK7088             ECOTYPE :IB0001                 
 P1     : 229.00  P2     : 0.3000  P5     : 971.00                              
 G2     : 957.00  G3     :  7.500  PHINT  : 45.000                              


*SIMULATED CROP AND SOIL STATUS AT MAIN DEVELOPMENT STAGES

 RUN NO.    35     P12/14                  

        CROP GROWTH     BIOMASS         LEAF   CROP N     STRESS      STRESS                                           
   DATE  AGE STAGE        kg/ha    LAI   NUM  kg/ha  %   H2O  Nitr Phos1 Phos2  RSTG                                   
 ------  --- ----------   -----  -----  ----  ---  ---  ----  ----  ----  ----  ----                                   
 14 NOV    0 Start Sim        0   0.00   0.0    0  0.0  0.00  0.00  0.00  0.00     7
 14 DEC    0 Sowing           0   0.00   0.0    0  0.0  0.00  0.00  0.00  0.00     8
 15 DEC    1 Germinate        0   0.00   0.0    0  0.0  0.00  0.00  0.00  0.00     9
 20 DEC    6 Emergence       25   0.00   2.1    1  4.4  0.00  0.01  0.00  0.00     1
  2 JAN   19 End Juveni     101   0.22   7.7    3  3.3  0.00  0.00  0.00  0.00     2
  6 JAN   23 Floral Ini     221   0.43   9.3    8  3.7  0.00  0.00  0.00  0.00     3
  4 FEB   52 75% Silkin    2586   1.32  19.6   61  2.4  0.49  0.00  0.00  0.00     4
 14 FEB   62 Beg Gr Fil    2720   0.90  19.6   61  2.3  0.84  0.00  0.00  0.00     5
 24 MAR  100 End Gr Fil    3196   0.18  19.6   61  1.9  0.89  0.00  0.00  0.00     6
 27 MAR  103 Maturity      3196   0.18  19.6   61  1.9  0.00  0.00  0.00  0.00    10
 27 MAR  103 Harvest       3196   0.18  19.6   61  1.9  0.00  0.00  0.00  0.00    10


*MAIN GROWTH AND DEVELOPMENT VARIABLES

@     VARIABLE                                         SIMULATED     MEASURED
      --------                                         ---------     --------
      Anthesis day (dap)                                      52          -99
      Physiological maturity day (dap)                       103          -99
      Yield at harvest maturity (kg [dm]/ha)                 878          -99
      Number at maturity (no/m2)                             630          -99
      Unit wt at maturity (g [dm]/unit)                   0.1393          -99
      Number at maturity (no/unit)                         110.7          -99
      Tops weight at maturity (kg [dm]/ha)                  3196          -99
      By-product produced (stalk) at maturity (kg[dm]/ha    2354          -99
      Leaf area index, maximum                              1.72          -99
      Harvest index at maturity                            0.275          -99
      Grain N at maturity (kg/ha)                             17          -99
      Tops N at maturity (kg/ha)                              61          -99
      Stem N at maturity (kg/ha)                              43          -99
      Grain N at maturity (%)                                1.9          -99
      Tops weight at anthesis (kg [dm]/ha)                  2570          -99
      Tops N at anthesis (kg/ha)                              61          -99
      Leaf number per stem at maturity                     19.59          -99
      Emergence day (dap)                                      6          -99


*ENVIRONMENTAL AND STRESS FACTORS

 |-----Development Phase------|--------------------------------------Environment--------------------------------------|-----------------Stress-----------------|
                              |---------------Average--------------|-----Cumulative-----|--------Count of days--------|          (0=Min, 1=Max Stress)         |
                         Time  Temp  Temp  Temp Solar Photop                Evapo    Pot TMIN TMIN TMAX TMAX TMAX RAIN|----Water----|---Nitrogen--|-Phosphorus-|
                         Span   Max   Min  Mean   Rad  [day]    CO2   Rain  Trans     ET   <    <    >    >    >    >   Photo         Photo         Photo
                         days    邂    邂    邂 MJ/m2     hr    ppm     mm     mm     mm  0邂  2邂 30邂 32邂 34邂  0mm  synth Growth  synth Growth  synth Growth
----------------------------------------------------------------------------------------------------------------------------------------------------------------
 Emergence-End Juvenile    13  30.6  18.6  24.6  17.3   0.00  341.6    2.9   14.0   62.1    0    0    9    3    0    3  0.000  0.000  0.002  0.005  0.000  0.000
 End Juvenil-Floral Init    4  31.3  19.9  25.6  11.7   0.00  341.6    1.2    4.2   12.7    0    0    4    1    0    1  0.000  0.000  0.001  0.002  0.000  0.000
 Floral Init-End Lf Grow   29  33.8  20.4  27.1  17.2   0.00  341.7    2.6   55.1  131.1    0    0   28   24   17    4  0.341  0.458  0.000  0.000  0.000  0.000
 End Lf Grth-Beg Grn Fil   10  32.9  20.5  26.7  17.1   0.00  341.8   16.6   14.0   44.8    0    0   10    7    0    2  0.765  0.844  0.000  0.000  0.000  0.000
 Grain Filling Phase       38  33.9  21.1  27.5  16.3   4.97  342.0   24.6   31.2  173.9    0    0   36   34   22    7  0.844  0.897  0.000  0.000  0.000  0.000


 Planting to Harvest      103  32.9  20.3  26.6  16.6   2.21  341.8  117.5  135.9  465.8    0    0   91   69   39   21  0.487  0.549  0.000  0.001  0.000  0.000
----------------------------------------------------------------------------------------------------------------------------------------------------------------


*Resource Productivity
 Growing season length: 103 days 

 Precipitation during growing season       117.5 mm[rain]
   Dry Matter Productivity                  2.72 kg[DM]/m3[rain]          =   27.2 kg[DM]/ha per mm[rain]
   Yield Productivity                       0.75 kg[grain yield]/m3[rain] =    7.5 kg[yield]/ha per mm[rain]

 Evapotranspiration during growing season  135.9 mm[ET]
   Dry Matter Productivity                  2.35 kg[DM]/m3[ET]            =   23.5 kg[DM]/ha per mm[ET]
   Yield Productivity                       0.65 kg[grain yield]/m3[ET]   =    6.5 kg[yield]/ha per mm[ET]

 Transpiration during growing season        63.0 mm[EP]
   Dry Matter Productivity                  5.07 kg[DM]/m3[EP]            =   50.7 kg[DM]/ha per mm[EP]
   Yield Productivity                       1.39 kg[grain yield]/m3[EP]   =   13.9 kg[yield]/ha per mm[EP]

 N applied during growing season            161. kg[N applied]/ha
   Dry Matter Productivity                  19.9 kg[DM]/kg[N applied]
   Yield Productivity                        5.5 kg[yield]/kg[N applied]

 N uptake during growing season               66 kg[N uptake]/ha
   Dry Matter Productivity                  48.4 kg[DM]/kg[N uptake]
   Yield Productivity                       13.3 kg[yield]/kg[N uptake]

--------------------------------------------------------------------------------------------------------------

                     Maize YIELD :      878 kg/ha    [Dry weight] 

**************************************************************************************************************

*DSSAT Cropping System Model Ver. 4.6.1.000 -release      OCT 02, 2017; 13:18:33
                                                                                
*RUN  36        : P12/19                    MZCER046 ANBU1982   36              
 MODEL          : MZCER046 - Maize                                              
 EXPERIMENT     : ANBU1982 MZ  Analisis a침os de bajo rendimiento Buga          
 DATA PATH      : C:\DSSAT46\maize\                                             
 TREATMENT 36   : P12/19                    MZCER046                            
                                                                                
                                                                                
 CROP           : Maize            CULTIVAR : DK7088           ECOTYPE :IB0001  
 STARTING DATE  : NOV 19 1982                                                   
 PLANTING DATE  : DEC 19 1982        PLANTS/m2 :  6.2     ROW SPACING :  80.cm  
 WEATHER        : CUNI   1982                                                   
 SOIL           : CCBUGA2017     TEXTURE : CL    -   Suelo Buga MADR Fase I     
 SOIL INITIAL C : DEPTH: 90cm EXTR. H2O: 83.9mm  NO3:151.4kg/ha  NH4: 62.4kg/ha 
 WATER BALANCE  : RAINFED                                                       
 IRRIGATION     : NOT IRRIGATED                                                 
 NITROGEN BAL.  : SOIL-N & N-UPTAKE SIMULATION; NO N-FIXATION                   
 N-FERTILIZER   :      161 kg/ha IN     5 APPLICATIONS                          
 RESIDUE/MANURE : INITIAL :     0 kg/ha ;       0 kg/ha IN     0 APPLICATIONS   
 ENVIRONM. OPT. : DAYL=    0.00  SRAD=    0.00  TMAX=    0.00  TMIN=    0.00    
                  RAIN=    0.00  CO2 =    0.00  DEW =    0.00  WIND=    0.00    
 SIMULATION OPT : WATER   :Y  NITROGEN:Y  N-FIX:N  PHOSPH :N  PESTS  :N         
                  PHOTO   :C  ET      :R  INFIL:S  HYDROL :R  SOM    :G         
                  CO2 341ppm  NSWIT   :1  EVAP :S  SOIL   :2  STEMP  :D         
 MANAGEMENT OPT : PLANTING:R  IRRIG   :N  FERT :D  RESIDUE:R  HARVEST:M         
                  WEATHER :M  TILLAGE :N                                        
                                                                                
*SUMMARY OF SOIL AND GENETIC INPUT PARAMETERS                                   
                                                                                
   SOIL LOWER UPPER   SAT  EXTR  INIT   ROOT   BULK     pH    NO3    NH4    ORG 
  DEPTH LIMIT LIMIT    SW    SW    SW   DIST   DENS                          C  
   cm   cm3/cm3    cm3/cm3    cm3/cm3         g/cm3         ugN/g  ugN/g     %  
------------------------------------------------------------------------------- 
  0-  5 0.215 0.331 0.341 0.116 0.319   1.00   1.68   6.70  11.90   4.21   0.75 
  5- 15 0.215 0.331 0.341 0.116 0.319   1.00   1.68   6.70  11.90   4.21   0.75 
 15- 25 0.215 0.331 0.341 0.116 0.319   1.00   1.68   6.70  11.90   4.21   0.75 
 25- 35 0.181 0.291 0.364 0.110 0.331   0.50   1.61   7.20  12.15   4.32   0.53 
 35- 45 0.181 0.291 0.364 0.110 0.344   0.50   1.61   7.20  12.40   4.44   0.53 
 45- 67 0.096 0.169 0.404 0.073 0.290   0.27   1.51   7.00  10.67   4.47   0.05 
 67- 90 0.096 0.169 0.404 0.073 0.195   0.27   1.51   7.00   7.63   4.53   0.05 
                                                                                
TOT- 90  13.3  21.7  34.0   8.4  25.6  <--cm   -  kg/ha-->  151.4   62.4  51964 
SOIL ALBEDO    : 0.09      EVAPORATION LIMIT : 6.00         MIN. FACTOR  : 1.00 
RUNOFF CURVE # :76.00      DRAINAGE RATE     : 0.60         FERT. FACTOR : 1.00 
                                                                                
 Maize      CULTIVAR :CI0004-DK7088             ECOTYPE :IB0001                 
 P1     : 229.00  P2     : 0.3000  P5     : 971.00                              
 G2     : 957.00  G3     :  7.500  PHINT  : 45.000                              


*SIMULATED CROP AND SOIL STATUS AT MAIN DEVELOPMENT STAGES

 RUN NO.    36     P12/19                  

        CROP GROWTH     BIOMASS         LEAF   CROP N     STRESS      STRESS                                           
   DATE  AGE STAGE        kg/ha    LAI   NUM  kg/ha  %   H2O  Nitr Phos1 Phos2  RSTG                                   
 ------  --- ----------   -----  -----  ----  ---  ---  ----  ----  ----  ----  ----                                   
 19 NOV    0 Start Sim        0   0.00   0.0    0  0.0  0.00  0.00  0.00  0.00     7
 19 DEC    0 Sowing           0   0.00   0.0    0  0.0  0.00  0.00  0.00  0.00     8
 20 DEC    1 Germinate        0   0.00   0.0    0  0.0  0.00  0.00  0.00  0.00     9
 25 DEC    6 Emergence       25   0.00   2.1    1  4.4  0.00  0.01  0.00  0.00     1
  7 JAN   19 End Juveni     108   0.23   7.7    4  3.3  0.00  0.00  0.00  0.00     2
 11 JAN   23 Floral Ini     266   0.50   9.5   10  3.7  0.01  0.00  0.00  0.00     3
 10 FEB   53 75% Silkin    2610   1.34  19.8   60  2.3  0.52  0.00  0.00  0.00     4
 19 FEB   62 Beg Gr Fil    2662   0.91  19.8   60  2.3  0.89  0.00  0.00  0.00     5
 30 MAR  101 End Gr Fil    3290   0.22  19.8   60  1.8  0.76  0.00  0.00  0.00     6
  2 APR  104 Maturity      3290   0.22  19.8   60  1.8  0.00  0.00  0.00  0.00    10
  2 APR  104 Harvest       3290   0.22  19.8   60  1.8  0.00  0.00  0.00  0.00    10


*MAIN GROWTH AND DEVELOPMENT VARIABLES

@     VARIABLE                                         SIMULATED     MEASURED
      --------                                         ---------     --------
      Anthesis day (dap)                                      53          -99
      Physiological maturity day (dap)                       104          -99
      Yield at harvest maturity (kg [dm]/ha)                 919          -99
      Number at maturity (no/m2)                             574          -99
      Unit wt at maturity (g [dm]/unit)                   0.1601          -99
      Number at maturity (no/unit)                         103.2          -99
      Tops weight at maturity (kg [dm]/ha)                  3290          -99
      By-product produced (stalk) at maturity (kg[dm]/ha    2407          -99
      Leaf area index, maximum                              1.79          -99
      Harvest index at maturity                            0.279          -99
      Grain N at maturity (kg/ha)                             17          -99
      Tops N at maturity (kg/ha)                              60          -99
      Stem N at maturity (kg/ha)                              41          -99
      Grain N at maturity (%)                                1.9          -99
      Tops weight at anthesis (kg [dm]/ha)                  2578          -99
      Tops N at anthesis (kg/ha)                              60          -99
      Leaf number per stem at maturity                     19.83          -99
      Emergence day (dap)                                      6          -99


*ENVIRONMENTAL AND STRESS FACTORS

 |-----Development Phase------|--------------------------------------Environment--------------------------------------|-----------------Stress-----------------|
                              |---------------Average--------------|-----Cumulative-----|--------Count of days--------|          (0=Min, 1=Max Stress)         |
                         Time  Temp  Temp  Temp Solar Photop                Evapo    Pot TMIN TMIN TMAX TMAX TMAX RAIN|----Water----|---Nitrogen--|-Phosphorus-|
                         Span   Max   Min  Mean   Rad  [day]    CO2   Rain  Trans     ET   <    <    >    >    >    >   Photo         Photo         Photo
                         days    邂    邂    邂 MJ/m2     hr    ppm     mm     mm     mm  0邂  2邂 30邂 32邂 34邂  0mm  synth Growth  synth Growth  synth Growth
----------------------------------------------------------------------------------------------------------------------------------------------------------------
 Emergence-End Juvenile    13  30.8  18.6  24.7  15.5   0.00  341.6    3.4   11.1   55.4    0    0   10    4    0    2  0.000  0.000  0.002  0.005  0.000  0.000
 End Juvenil-Floral Init    4  33.5  19.9  26.7  18.2   0.00  341.6    0.0    5.4   20.3    0    0    4    3    2    0  0.000  0.008  0.001  0.003  0.000  0.000
 Floral Init-End Lf Grow   30  33.7  20.6  27.1  16.6   0.00  341.7   19.2   58.8  130.8    0    0   29   24   15    6  0.348  0.488  0.000  0.000  0.000  0.000
 End Lf Grth-Beg Grn Fil    9  34.0  20.0  27.0  18.6   0.00  341.9    0.0   11.5   44.0    0    0    9    9    4    0  0.819  0.880  0.000  0.000  0.000  0.000
 Grain Filling Phase       39  33.4  21.2  27.3  16.1   6.92  342.0   88.1   46.0  176.5    0    0   36   30   18   11  0.744  0.787  0.000  0.000  0.000  0.000


 Planting to Harvest      104  33.1  20.4  26.7  16.7   3.03  341.8  111.4  145.7  475.1    0    0   95   72   39   21  0.450  0.512  0.000  0.001  0.000  0.000
----------------------------------------------------------------------------------------------------------------------------------------------------------------


*Resource Productivity
 Growing season length: 104 days 

 Precipitation during growing season       111.4 mm[rain]
   Dry Matter Productivity                  2.95 kg[DM]/m3[rain]          =   29.5 kg[DM]/ha per mm[rain]
   Yield Productivity                       0.82 kg[grain yield]/m3[rain] =    8.2 kg[yield]/ha per mm[rain]

 Evapotranspiration during growing season  145.7 mm[ET]
   Dry Matter Productivity                  2.26 kg[DM]/m3[ET]            =   22.6 kg[DM]/ha per mm[ET]
   Yield Productivity                       0.63 kg[grain yield]/m3[ET]   =    6.3 kg[yield]/ha per mm[ET]

 Transpiration during growing season        68.3 mm[EP]
   Dry Matter Productivity                  4.82 kg[DM]/m3[EP]            =   48.2 kg[DM]/ha per mm[EP]
   Yield Productivity                       1.35 kg[grain yield]/m3[EP]   =   13.5 kg[yield]/ha per mm[EP]

 N applied during growing season            161. kg[N applied]/ha
   Dry Matter Productivity                  20.4 kg[DM]/kg[N applied]
   Yield Productivity                        5.7 kg[yield]/kg[N applied]

 N uptake during growing season               66 kg[N uptake]/ha
   Dry Matter Productivity                  49.8 kg[DM]/kg[N uptake]
   Yield Productivity                       13.9 kg[yield]/kg[N uptake]

--------------------------------------------------------------------------------------------------------------

                     Maize YIELD :      919 kg/ha    [Dry weight] 

**************************************************************************************************************
