*SIMULATION OVERVIEW FILE

*DSSAT Cropping System Model Ver. 4.6.1.000 -release      OCT 02, 2017; 13:53:16
                                                                                
*RUN   1        : P04/02                    MZCER046 ANBU2002    1              
 MODEL          : MZCER046 - Maize                                              
 EXPERIMENT     : ANBU2002 MZ  Analisis a침os de bajo rendimiento Buga          
 DATA PATH      : C:\DSSAT46\maize\                                             
 TREATMENT  1   : P04/02                    MZCER046                            
                                                                                
                                                                                
 CROP           : Maize            CULTIVAR : P30F35           ECOTYPE :IB0001  
 STARTING DATE  : MAR  3 2002                                                   
 PLANTING DATE  : APR  2 2002        PLANTS/m2 :  6.2     ROW SPACING :  80.cm  
 WEATHER        : CUNI   2002                                                   
 SOIL           : CCBUGA2017     TEXTURE : CL    -   Suelo Buga MADR Fase I     
 SOIL INITIAL C : DEPTH: 90cm EXTR. H2O: 83.9mm  NO3:151.4kg/ha  NH4: 62.4kg/ha 
 WATER BALANCE  : RAINFED                                                       
 IRRIGATION     : NOT IRRIGATED                                                 
 NITROGEN BAL.  : SOIL-N & N-UPTAKE SIMULATION; NO N-FIXATION                   
 N-FERTILIZER   :      161 kg/ha IN     5 APPLICATIONS                          
 RESIDUE/MANURE : INITIAL :     0 kg/ha ;       0 kg/ha IN     0 APPLICATIONS   
 ENVIRONM. OPT. : DAYL=    0.00  SRAD=    0.00  TMAX=    0.00  TMIN=    0.00    
                  RAIN=    0.00  CO2 =    0.00  DEW =    0.00  WIND=    0.00    
 SIMULATION OPT : WATER   :Y  NITROGEN:Y  N-FIX:N  PHOSPH :N  PESTS  :N         
                  PHOTO   :C  ET      :R  INFIL:S  HYDROL :R  SOM    :G         
                  CO2 372ppm  NSWIT   :1  EVAP :S  SOIL   :2  STEMP  :D         
 MANAGEMENT OPT : PLANTING:R  IRRIG   :N  FERT :D  RESIDUE:R  HARVEST:M         
                  WEATHER :M  TILLAGE :N                                        
                                                                                
*SUMMARY OF SOIL AND GENETIC INPUT PARAMETERS                                   
                                                                                
   SOIL LOWER UPPER   SAT  EXTR  INIT   ROOT   BULK     pH    NO3    NH4    ORG 
  DEPTH LIMIT LIMIT    SW    SW    SW   DIST   DENS                          C  
   cm   cm3/cm3    cm3/cm3    cm3/cm3         g/cm3         ugN/g  ugN/g     %  
------------------------------------------------------------------------------- 
  0-  5 0.215 0.331 0.341 0.116 0.319   1.00   1.68   6.70  11.90   4.21   0.75 
  5- 15 0.215 0.331 0.341 0.116 0.319   1.00   1.68   6.70  11.90   4.21   0.75 
 15- 25 0.215 0.331 0.341 0.116 0.319   1.00   1.68   6.70  11.90   4.21   0.75 
 25- 35 0.181 0.291 0.364 0.110 0.331   0.50   1.61   7.20  12.15   4.32   0.53 
 35- 45 0.181 0.291 0.364 0.110 0.344   0.50   1.61   7.20  12.40   4.44   0.53 
 45- 67 0.096 0.169 0.404 0.073 0.290   0.27   1.51   7.00  10.67   4.47   0.05 
 67- 90 0.096 0.169 0.404 0.073 0.195   0.27   1.51   7.00   7.63   4.53   0.05 
                                                                                
TOT- 90  13.3  21.7  34.0   8.4  25.6  <--cm   -  kg/ha-->  151.4   62.4  51964 
SOIL ALBEDO    : 0.09      EVAPORATION LIMIT : 6.00         MIN. FACTOR  : 1.00 
RUNOFF CURVE # :76.00      DRAINAGE RATE     : 0.60         FERT. FACTOR : 1.00 
                                                                                
 Maize      CULTIVAR :CI0001-P30F35             ECOTYPE :IB0001                 
 P1     : 212.00  P2     : 0.3000  P5     : 925.00                              
 G2     : 954.00  G3     :  7.000  PHINT  : 50.000                              


*SIMULATED CROP AND SOIL STATUS AT MAIN DEVELOPMENT STAGES

 RUN NO.     1     P04/02                  

        CROP GROWTH     BIOMASS         LEAF   CROP N     STRESS      STRESS                                           
   DATE  AGE STAGE        kg/ha    LAI   NUM  kg/ha  %   H2O  Nitr Phos1 Phos2  RSTG                                   
 ------  --- ----------   -----  -----  ----  ---  ---  ----  ----  ----  ----  ----                                   
  3 MAR    0 Start Sim        0   0.00   0.0    0  0.0  0.00  0.00  0.00  0.00     7
  2 APR    0 Sowing           0   0.00   0.0    0  0.0  0.00  0.00  0.00  0.00     8
  3 APR    1 Germinate        0   0.00   0.0    0  0.0  0.00  0.00  0.00  0.00     9
  8 APR    6 Emergence       25   0.00   2.1    1  4.4  0.00  0.01  0.00  0.00     1
 20 APR   18 End Juveni      82   0.18   6.8    3  3.5  0.00  0.00  0.00  0.00     2
 26 APR   24 Floral Ini     175   0.35   8.9    6  3.6  0.00  0.00  0.00  0.00     3
  2 JUN   61 75% Silkin    5357   2.93  18.7  109  2.0  0.06  0.00  0.00  0.00     4
 12 JUN   71 Beg Gr Fil    7050   2.74  18.7  109  1.5  0.19  0.00  0.00  0.00     5
 25 JUL  114 End Gr Fil    9722   0.66  18.7  121  1.2  0.72  0.00  0.00  0.00     6
 27 JUL  116 Maturity      9722   0.66  18.7  121  1.2  0.97  0.00  0.00  0.00    10
 27 JUL  116 Harvest       9722   0.66  18.7  121  1.2  0.00  0.00  0.00  0.00    10


*MAIN GROWTH AND DEVELOPMENT VARIABLES

@     VARIABLE                                         SIMULATED     MEASURED
      --------                                         ---------     --------
      Anthesis day (dap)                                      61          -99
      Physiological maturity day (dap)                       116          -99
      Yield at harvest maturity (kg [dm]/ha)                4105          -99
      Number at maturity (no/m2)                            2322          -99
      Unit wt at maturity (g [dm]/unit)                   0.1768          -99
      Number at maturity (no/unit)                         374.5          -99
      Tops weight at maturity (kg [dm]/ha)                  9722          -99
      By-product produced (stalk) at maturity (kg[dm]/ha    5664          -99
      Leaf area index, maximum                              3.01          -99
      Harvest index at maturity                            0.422          -99
      Grain N at maturity (kg/ha)                             75          -99
      Tops N at maturity (kg/ha)                             121          -99
      Stem N at maturity (kg/ha)                              46          -99
      Grain N at maturity (%)                                1.8          -99
      Tops weight at anthesis (kg [dm]/ha)                  5193          -99
      Tops N at anthesis (kg/ha)                             106          -99
      Leaf number per stem at maturity                     18.71          -99
      Emergence day (dap)                                      6          -99


*ENVIRONMENTAL AND STRESS FACTORS

 |-----Development Phase------|--------------------------------------Environment--------------------------------------|-----------------Stress-----------------|
                              |---------------Average--------------|-----Cumulative-----|--------Count of days--------|          (0=Min, 1=Max Stress)         |
                         Time  Temp  Temp  Temp Solar Photop                Evapo    Pot TMIN TMIN TMAX TMAX TMAX RAIN|----Water----|---Nitrogen--|-Phosphorus-|
                         Span   Max   Min  Mean   Rad  [day]    CO2   Rain  Trans     ET   <    <    >    >    >    >   Photo         Photo         Photo
                         days    邂    邂    邂 MJ/m2     hr    ppm     mm     mm     mm  0邂  2邂 30邂 32邂 34邂  0mm  synth Growth  synth Growth  synth Growth
----------------------------------------------------------------------------------------------------------------------------------------------------------------
 Emergence-End Juvenile    12  30.9  19.3  25.1  14.8  21.85  372.4   43.0   27.6   49.8    0    0    8    4    0    5  0.000  0.000  0.002  0.005  0.000  0.000
 End Juvenil-Floral Init    6  29.1  19.8  24.4  12.6  24.00  372.5   49.0   15.7   20.4    0    0    3    0    0    4  0.000  0.000  0.001  0.002  0.000  0.000
 Floral Init-End Lf Grow   37  29.0  19.4  24.2  14.6  24.00  372.6   69.1  119.7  133.5    0    0   12    2    0   13  0.016  0.045  0.000  0.000  0.000  0.000
 End Lf Grth-Beg Grn Fil   10  30.5  18.8  24.7  15.1  24.00  372.7   60.1   31.2   36.0    0    0    7    2    0    8  0.161  0.241  0.000  0.000  0.000  0.000
 Grain Filling Phase       43  30.7  19.0  24.8  17.1  24.00  373.0   27.2   79.1  181.0    0    0   30   10    1    9  0.642  0.699  0.000  0.000  0.000  0.000


 Planting to Harvest      116  30.0  19.2  24.6  15.7  23.41  372.7  305.8  300.1  458.2    0    0   65   18    1   43  0.273  0.311  0.000  0.001  0.000  0.000
----------------------------------------------------------------------------------------------------------------------------------------------------------------


*Resource Productivity
 Growing season length: 116 days 

 Precipitation during growing season       305.8 mm[rain]
   Dry Matter Productivity                  3.18 kg[DM]/m3[rain]          =   31.8 kg[DM]/ha per mm[rain]
   Yield Productivity                       1.34 kg[grain yield]/m3[rain] =   13.4 kg[yield]/ha per mm[rain]

 Evapotranspiration during growing season  300.1 mm[ET]
   Dry Matter Productivity                  3.24 kg[DM]/m3[ET]            =   32.4 kg[DM]/ha per mm[ET]
   Yield Productivity                       1.37 kg[grain yield]/m3[ET]   =   13.7 kg[yield]/ha per mm[ET]

 Transpiration during growing season       158.3 mm[EP]
   Dry Matter Productivity                  6.14 kg[DM]/m3[EP]            =   61.4 kg[DM]/ha per mm[EP]
   Yield Productivity                       2.59 kg[grain yield]/m3[EP]   =   25.9 kg[yield]/ha per mm[EP]

 N applied during growing season            161. kg[N applied]/ha
   Dry Matter Productivity                  60.4 kg[DM]/kg[N applied]
   Yield Productivity                       25.5 kg[yield]/kg[N applied]

 N uptake during growing season              133 kg[N uptake]/ha
   Dry Matter Productivity                  73.1 kg[DM]/kg[N uptake]
   Yield Productivity                       30.9 kg[yield]/kg[N uptake]

--------------------------------------------------------------------------------------------------------------

                     Maize YIELD :     4105 kg/ha    [Dry weight] 

**************************************************************************************************************

*DSSAT Cropping System Model Ver. 4.6.1.000 -release      OCT 02, 2017; 13:53:16
                                                                                
*RUN   2        : P04/07                    MZCER046 ANBU2002    2              
 MODEL          : MZCER046 - Maize                                              
 EXPERIMENT     : ANBU2002 MZ  Analisis a침os de bajo rendimiento Buga          
 DATA PATH      : C:\DSSAT46\maize\                                             
 TREATMENT  2   : P04/07                    MZCER046                            
                                                                                
                                                                                
 CROP           : Maize            CULTIVAR : P30F35           ECOTYPE :IB0001  
 STARTING DATE  : MAR  8 2002                                                   
 PLANTING DATE  : APR  7 2002        PLANTS/m2 :  6.2     ROW SPACING :  80.cm  
 WEATHER        : CUNI   2002                                                   
 SOIL           : CCBUGA2017     TEXTURE : CL    -   Suelo Buga MADR Fase I     
 SOIL INITIAL C : DEPTH: 90cm EXTR. H2O: 83.9mm  NO3:151.4kg/ha  NH4: 62.4kg/ha 
 WATER BALANCE  : RAINFED                                                       
 IRRIGATION     : NOT IRRIGATED                                                 
 NITROGEN BAL.  : SOIL-N & N-UPTAKE SIMULATION; NO N-FIXATION                   
 N-FERTILIZER   :      161 kg/ha IN     5 APPLICATIONS                          
 RESIDUE/MANURE : INITIAL :     0 kg/ha ;       0 kg/ha IN     0 APPLICATIONS   
 ENVIRONM. OPT. : DAYL=    0.00  SRAD=    0.00  TMAX=    0.00  TMIN=    0.00    
                  RAIN=    0.00  CO2 =    0.00  DEW =    0.00  WIND=    0.00    
 SIMULATION OPT : WATER   :Y  NITROGEN:Y  N-FIX:N  PHOSPH :N  PESTS  :N         
                  PHOTO   :C  ET      :R  INFIL:S  HYDROL :R  SOM    :G         
                  CO2 372ppm  NSWIT   :1  EVAP :S  SOIL   :2  STEMP  :D         
 MANAGEMENT OPT : PLANTING:R  IRRIG   :N  FERT :D  RESIDUE:R  HARVEST:M         
                  WEATHER :M  TILLAGE :N                                        
                                                                                
*SUMMARY OF SOIL AND GENETIC INPUT PARAMETERS                                   
                                                                                
   SOIL LOWER UPPER   SAT  EXTR  INIT   ROOT   BULK     pH    NO3    NH4    ORG 
  DEPTH LIMIT LIMIT    SW    SW    SW   DIST   DENS                          C  
   cm   cm3/cm3    cm3/cm3    cm3/cm3         g/cm3         ugN/g  ugN/g     %  
------------------------------------------------------------------------------- 
  0-  5 0.215 0.331 0.341 0.116 0.319   1.00   1.68   6.70  11.90   4.21   0.75 
  5- 15 0.215 0.331 0.341 0.116 0.319   1.00   1.68   6.70  11.90   4.21   0.75 
 15- 25 0.215 0.331 0.341 0.116 0.319   1.00   1.68   6.70  11.90   4.21   0.75 
 25- 35 0.181 0.291 0.364 0.110 0.331   0.50   1.61   7.20  12.15   4.32   0.53 
 35- 45 0.181 0.291 0.364 0.110 0.344   0.50   1.61   7.20  12.40   4.44   0.53 
 45- 67 0.096 0.169 0.404 0.073 0.290   0.27   1.51   7.00  10.67   4.47   0.05 
 67- 90 0.096 0.169 0.404 0.073 0.195   0.27   1.51   7.00   7.63   4.53   0.05 
                                                                                
TOT- 90  13.3  21.7  34.0   8.4  25.6  <--cm   -  kg/ha-->  151.4   62.4  51964 
SOIL ALBEDO    : 0.09      EVAPORATION LIMIT : 6.00         MIN. FACTOR  : 1.00 
RUNOFF CURVE # :76.00      DRAINAGE RATE     : 0.60         FERT. FACTOR : 1.00 
                                                                                
 Maize      CULTIVAR :CI0001-P30F35             ECOTYPE :IB0001                 
 P1     : 212.00  P2     : 0.3000  P5     : 925.00                              
 G2     : 954.00  G3     :  7.000  PHINT  : 50.000                              


*SIMULATED CROP AND SOIL STATUS AT MAIN DEVELOPMENT STAGES

 RUN NO.     2     P04/07                  

        CROP GROWTH     BIOMASS         LEAF   CROP N     STRESS      STRESS                                           
   DATE  AGE STAGE        kg/ha    LAI   NUM  kg/ha  %   H2O  Nitr Phos1 Phos2  RSTG                                   
 ------  --- ----------   -----  -----  ----  ---  ---  ----  ----  ----  ----  ----                                   
  8 MAR    0 Start Sim        0   0.00   0.0    0  0.0  0.00  0.00  0.00  0.00     7
  7 APR    0 Sowing           0   0.00   0.0    0  0.0  0.00  0.00  0.00  0.00     8
  8 APR    1 Germinate        0   0.00   0.0    0  0.0  0.00  0.00  0.00  0.00     9
 13 APR    6 Emergence       25   0.00   2.1    1  4.4  0.00  0.01  0.00  0.00     1
 25 APR   18 End Juveni      61   0.13   6.8    2  3.7  0.00  0.00  0.00  0.00     2
  2 MAY   25 Floral Ini     174   0.35   9.1    6  3.6  0.00  0.00  0.00  0.00     3
  9 JUN   63 75% Silkin    5679   3.12  19.3  114  2.0  0.06  0.00  0.00  0.00     4
 19 JUN   73 Beg Gr Fil    8147   2.95  19.3  117  1.4  0.02  0.00  0.00  0.00     5
  1 AUG  116 End Gr Fil    9982   0.53  19.3  120  1.2  0.86  0.00  0.00  0.00     6
  4 AUG  119 Maturity      9982   0.53  19.3  120  1.2  0.97  0.00  0.00  0.00    10
  4 AUG  119 Harvest       9982   0.53  19.3  120  1.2  0.00  0.00  0.00  0.00    10


*MAIN GROWTH AND DEVELOPMENT VARIABLES

@     VARIABLE                                         SIMULATED     MEASURED
      --------                                         ---------     --------
      Anthesis day (dap)                                      63          -99
      Physiological maturity day (dap)                       119          -99
      Yield at harvest maturity (kg [dm]/ha)                3324          -99
      Number at maturity (no/m2)                            3072          -99
      Unit wt at maturity (g [dm]/unit)                   0.1082          -99
      Number at maturity (no/unit)                         495.5          -99
      Tops weight at maturity (kg [dm]/ha)                  9982          -99
      By-product produced (stalk) at maturity (kg[dm]/ha    6710          -99
      Leaf area index, maximum                              3.17          -99
      Harvest index at maturity                            0.333          -99
      Grain N at maturity (kg/ha)                             62          -99
      Tops N at maturity (kg/ha)                             120          -99
      Stem N at maturity (kg/ha)                              59          -99
      Grain N at maturity (%)                                1.9          -99
      Tops weight at anthesis (kg [dm]/ha)                  5507          -99
      Tops N at anthesis (kg/ha)                             112          -99
      Leaf number per stem at maturity                     19.25          -99
      Emergence day (dap)                                      6          -99


*ENVIRONMENTAL AND STRESS FACTORS

 |-----Development Phase------|--------------------------------------Environment--------------------------------------|-----------------Stress-----------------|
                              |---------------Average--------------|-----Cumulative-----|--------Count of days--------|          (0=Min, 1=Max Stress)         |
                         Time  Temp  Temp  Temp Solar Photop                Evapo    Pot TMIN TMIN TMAX TMAX TMAX RAIN|----Water----|---Nitrogen--|-Phosphorus-|
                         Span   Max   Min  Mean   Rad  [day]    CO2   Rain  Trans     ET   <    <    >    >    >    >   Photo         Photo         Photo
                         days    邂    邂    邂 MJ/m2     hr    ppm     mm     mm     mm  0邂  2邂 30邂 32邂 34邂  0mm  synth Growth  synth Growth  synth Growth
----------------------------------------------------------------------------------------------------------------------------------------------------------------
 Emergence-End Juvenile    12  29.8  19.7  24.8  14.7  23.74  372.5   56.0   20.0   49.1    0    0    6    2    0    6  0.000  0.000  0.002  0.004  0.000  0.000
 End Juvenil-Floral Init    7  28.9  19.5  24.2  14.6  24.00  372.5   25.0   27.7   27.7    0    0    3    0    0    5  0.000  0.000  0.001  0.001  0.000  0.000
 Floral Init-End Lf Grow   38  29.4  19.3  24.4  14.6  24.00  372.6   81.2  112.2  135.9    0    0   16    3    0   14  0.020  0.057  0.000  0.000  0.000  0.000
 End Lf Grth-Beg Grn Fil   10  31.1  18.7  24.9  17.0  24.00  372.8   30.0   40.5   40.7    0    0    8    3    0    4  0.000  0.000  0.000  0.000  0.000  0.000
 Grain Filling Phase       43  30.2  18.8  24.5  17.7  24.00  373.0   26.4   56.9  188.7    0    0   26    8    1    9  0.781  0.840  0.000  0.000  0.000  0.000


 Planting to Harvest      119  29.9  19.1  24.5  15.9  23.73  372.8  252.6  280.0  476.7    0    0   64   18    1   40  0.312  0.346  0.000  0.001  0.000  0.000
----------------------------------------------------------------------------------------------------------------------------------------------------------------


*Resource Productivity
 Growing season length: 119 days 

 Precipitation during growing season       252.6 mm[rain]
   Dry Matter Productivity                  3.95 kg[DM]/m3[rain]          =   39.5 kg[DM]/ha per mm[rain]
   Yield Productivity                       1.32 kg[grain yield]/m3[rain] =   13.2 kg[yield]/ha per mm[rain]

 Evapotranspiration during growing season  280.0 mm[ET]
   Dry Matter Productivity                  3.56 kg[DM]/m3[ET]            =   35.6 kg[DM]/ha per mm[ET]
   Yield Productivity                       1.19 kg[grain yield]/m3[ET]   =   11.9 kg[yield]/ha per mm[ET]

 Transpiration during growing season       153.1 mm[EP]
   Dry Matter Productivity                  6.52 kg[DM]/m3[EP]            =   65.2 kg[DM]/ha per mm[EP]
   Yield Productivity                       2.17 kg[grain yield]/m3[EP]   =   21.7 kg[yield]/ha per mm[EP]

 N applied during growing season            161. kg[N applied]/ha
   Dry Matter Productivity                  62.0 kg[DM]/kg[N applied]
   Yield Productivity                       20.6 kg[yield]/kg[N applied]

 N uptake during growing season              131 kg[N uptake]/ha
   Dry Matter Productivity                  76.2 kg[DM]/kg[N uptake]
   Yield Productivity                       25.4 kg[yield]/kg[N uptake]

--------------------------------------------------------------------------------------------------------------

                     Maize YIELD :     3324 kg/ha    [Dry weight] 

**************************************************************************************************************

*DSSAT Cropping System Model Ver. 4.6.1.000 -release      OCT 02, 2017; 13:53:16
                                                                                
*RUN   3        : P04/12                    MZCER046 ANBU2002    3              
 MODEL          : MZCER046 - Maize                                              
 EXPERIMENT     : ANBU2002 MZ  Analisis a침os de bajo rendimiento Buga          
 DATA PATH      : C:\DSSAT46\maize\                                             
 TREATMENT  3   : P04/12                    MZCER046                            
                                                                                
                                                                                
 CROP           : Maize            CULTIVAR : P30F35           ECOTYPE :IB0001  
 STARTING DATE  : MAR 13 2002                                                   
 PLANTING DATE  : APR 12 2002        PLANTS/m2 :  6.2     ROW SPACING :  80.cm  
 WEATHER        : CUNI   2002                                                   
 SOIL           : CCBUGA2017     TEXTURE : CL    -   Suelo Buga MADR Fase I     
 SOIL INITIAL C : DEPTH: 90cm EXTR. H2O: 83.9mm  NO3:151.4kg/ha  NH4: 62.4kg/ha 
 WATER BALANCE  : RAINFED                                                       
 IRRIGATION     : NOT IRRIGATED                                                 
 NITROGEN BAL.  : SOIL-N & N-UPTAKE SIMULATION; NO N-FIXATION                   
 N-FERTILIZER   :      161 kg/ha IN     5 APPLICATIONS                          
 RESIDUE/MANURE : INITIAL :     0 kg/ha ;       0 kg/ha IN     0 APPLICATIONS   
 ENVIRONM. OPT. : DAYL=    0.00  SRAD=    0.00  TMAX=    0.00  TMIN=    0.00    
                  RAIN=    0.00  CO2 =    0.00  DEW =    0.00  WIND=    0.00    
 SIMULATION OPT : WATER   :Y  NITROGEN:Y  N-FIX:N  PHOSPH :N  PESTS  :N         
                  PHOTO   :C  ET      :R  INFIL:S  HYDROL :R  SOM    :G         
                  CO2 372ppm  NSWIT   :1  EVAP :S  SOIL   :2  STEMP  :D         
 MANAGEMENT OPT : PLANTING:R  IRRIG   :N  FERT :D  RESIDUE:R  HARVEST:M         
                  WEATHER :M  TILLAGE :N                                        
                                                                                
*SUMMARY OF SOIL AND GENETIC INPUT PARAMETERS                                   
                                                                                
   SOIL LOWER UPPER   SAT  EXTR  INIT   ROOT   BULK     pH    NO3    NH4    ORG 
  DEPTH LIMIT LIMIT    SW    SW    SW   DIST   DENS                          C  
   cm   cm3/cm3    cm3/cm3    cm3/cm3         g/cm3         ugN/g  ugN/g     %  
------------------------------------------------------------------------------- 
  0-  5 0.215 0.331 0.341 0.116 0.319   1.00   1.68   6.70  11.90   4.21   0.75 
  5- 15 0.215 0.331 0.341 0.116 0.319   1.00   1.68   6.70  11.90   4.21   0.75 
 15- 25 0.215 0.331 0.341 0.116 0.319   1.00   1.68   6.70  11.90   4.21   0.75 
 25- 35 0.181 0.291 0.364 0.110 0.331   0.50   1.61   7.20  12.15   4.32   0.53 
 35- 45 0.181 0.291 0.364 0.110 0.344   0.50   1.61   7.20  12.40   4.44   0.53 
 45- 67 0.096 0.169 0.404 0.073 0.290   0.27   1.51   7.00  10.67   4.47   0.05 
 67- 90 0.096 0.169 0.404 0.073 0.195   0.27   1.51   7.00   7.63   4.53   0.05 
                                                                                
TOT- 90  13.3  21.7  34.0   8.4  25.6  <--cm   -  kg/ha-->  151.4   62.4  51964 
SOIL ALBEDO    : 0.09      EVAPORATION LIMIT : 6.00         MIN. FACTOR  : 1.00 
RUNOFF CURVE # :76.00      DRAINAGE RATE     : 0.60         FERT. FACTOR : 1.00 
                                                                                
 Maize      CULTIVAR :CI0001-P30F35             ECOTYPE :IB0001                 
 P1     : 212.00  P2     : 0.3000  P5     : 925.00                              
 G2     : 954.00  G3     :  7.000  PHINT  : 50.000                              


*SIMULATED CROP AND SOIL STATUS AT MAIN DEVELOPMENT STAGES

 RUN NO.     3     P04/12                  

        CROP GROWTH     BIOMASS         LEAF   CROP N     STRESS      STRESS                                           
   DATE  AGE STAGE        kg/ha    LAI   NUM  kg/ha  %   H2O  Nitr Phos1 Phos2  RSTG                                   
 ------  --- ----------   -----  -----  ----  ---  ---  ----  ----  ----  ----  ----                                   
 13 MAR    0 Start Sim        0   0.00   0.0    0  0.0  0.00  0.00  0.00  0.00     7
 12 APR    0 Sowing           0   0.00   0.0    0  0.0  0.00  0.00  0.00  0.00     8
 13 APR    1 Germinate        0   0.00   0.0    0  0.0  0.00  0.00  0.00  0.00     9
 18 APR    6 Emergence       25   0.00   2.0    1  4.4  0.00  0.01  0.00  0.00     1
 30 APR   18 End Juveni      45   0.10   6.6    1  3.2  0.00  0.00  0.00  0.00     2
  7 MAY   25 Floral Ini     191   0.38   8.9    7  3.6  0.00  0.00  0.00  0.00     3
 13 JUN   62 75% Silkin    5668   3.11  18.9  115  2.0  0.01  0.00  0.00  0.00     4
 23 JUN   72 Beg Gr Fil    8061   2.88  18.9  117  1.5  0.18  0.00  0.00  0.00     5
  5 AUG  115 End Gr Fil    9563   0.48  18.9  117  1.2  0.87  0.00  0.00  0.00     6
  8 AUG  118 Maturity      9563   0.48  18.9  117  1.2  0.97  0.00  0.00  0.00    10
  8 AUG  118 Harvest       9563   0.48  18.9  117  1.2  0.00  0.00  0.00  0.00    10


*MAIN GROWTH AND DEVELOPMENT VARIABLES

@     VARIABLE                                         SIMULATED     MEASURED
      --------                                         ---------     --------
      Anthesis day (dap)                                      62          -99
      Physiological maturity day (dap)                       118          -99
      Yield at harvest maturity (kg [dm]/ha)                2971          -99
      Number at maturity (no/m2)                            3118          -99
      Unit wt at maturity (g [dm]/unit)                   0.0953          -99
      Number at maturity (no/unit)                         502.9          -99
      Tops weight at maturity (kg [dm]/ha)                  9563          -99
      By-product produced (stalk) at maturity (kg[dm]/ha    6643          -99
      Leaf area index, maximum                              3.24          -99
      Harvest index at maturity                            0.311          -99
      Grain N at maturity (kg/ha)                             55          -99
      Tops N at maturity (kg/ha)                             117          -99
      Stem N at maturity (kg/ha)                              62          -99
      Grain N at maturity (%)                                1.9          -99
      Tops weight at anthesis (kg [dm]/ha)                  5425          -99
      Tops N at anthesis (kg/ha)                             112          -99
      Leaf number per stem at maturity                     18.85          -99
      Emergence day (dap)                                      6          -99


*ENVIRONMENTAL AND STRESS FACTORS

 |-----Development Phase------|--------------------------------------Environment--------------------------------------|-----------------Stress-----------------|
                              |---------------Average--------------|-----Cumulative-----|--------Count of days--------|          (0=Min, 1=Max Stress)         |
                         Time  Temp  Temp  Temp Solar Photop                Evapo    Pot TMIN TMIN TMAX TMAX TMAX RAIN|----Water----|---Nitrogen--|-Phosphorus-|
                         Span   Max   Min  Mean   Rad  [day]    CO2   Rain  Trans     ET   <    <    >    >    >    >   Photo         Photo         Photo
                         days    邂    邂    邂 MJ/m2     hr    ppm     mm     mm     mm  0邂  2邂 30邂 32邂 34邂  0mm  synth Growth  synth Growth  synth Growth
----------------------------------------------------------------------------------------------------------------------------------------------------------------
 Emergence-End Juvenile    12  28.8  19.8  24.3  13.5  24.00  372.5   80.0   33.3   44.8    0    0    4    0    0   10  0.000  0.000  0.002  0.005  0.000  0.000
 End Juvenil-Floral Init    7  28.7  19.5  24.1  15.2  24.00  372.5    0.0   15.6   28.7    0    0    3    0    0    0  0.000  0.000  0.000  0.001  0.000  0.000
 Floral Init-End Lf Grow   37  29.6  19.2  24.4  14.7  24.00  372.7  111.2  113.1  133.6    0    0   16    4    0   18  0.003  0.012  0.000  0.000  0.000  0.000
 End Lf Grth-Beg Grn Fil   10  30.7  19.0  24.9  17.9  24.00  372.9    0.0   41.1   42.6    0    0    8    2    0    0  0.038  0.114  0.000  0.000  0.000  0.000
 Grain Filling Phase       43  30.3  18.6  24.4  17.8  24.00  373.0   26.4   49.7  189.6    0    0   25    9    1    9  0.821  0.866  0.000  0.000  0.000  0.000


 Planting to Harvest      118  29.9  19.0  24.5  16.2  23.95  372.8  218.6  263.0  482.0    0    0   64   18    1   38  0.328  0.353  0.000  0.001  0.000  0.000
----------------------------------------------------------------------------------------------------------------------------------------------------------------


*Resource Productivity
 Growing season length: 118 days 

 Precipitation during growing season       218.6 mm[rain]
   Dry Matter Productivity                  4.37 kg[DM]/m3[rain]          =   43.7 kg[DM]/ha per mm[rain]
   Yield Productivity                       1.36 kg[grain yield]/m3[rain] =   13.6 kg[yield]/ha per mm[rain]

 Evapotranspiration during growing season  263.0 mm[ET]
   Dry Matter Productivity                  3.64 kg[DM]/m3[ET]            =   36.4 kg[DM]/ha per mm[ET]
   Yield Productivity                       1.13 kg[grain yield]/m3[ET]   =   11.3 kg[yield]/ha per mm[ET]

 Transpiration during growing season       147.6 mm[EP]
   Dry Matter Productivity                  6.48 kg[DM]/m3[EP]            =   64.8 kg[DM]/ha per mm[EP]
   Yield Productivity                       2.01 kg[grain yield]/m3[EP]   =   20.1 kg[yield]/ha per mm[EP]

 N applied during growing season            161. kg[N applied]/ha
   Dry Matter Productivity                  59.4 kg[DM]/kg[N applied]
   Yield Productivity                       18.5 kg[yield]/kg[N applied]

 N uptake during growing season              128 kg[N uptake]/ha
   Dry Matter Productivity                  74.7 kg[DM]/kg[N uptake]
   Yield Productivity                       23.2 kg[yield]/kg[N uptake]

--------------------------------------------------------------------------------------------------------------

                     Maize YIELD :     2971 kg/ha    [Dry weight] 

**************************************************************************************************************

*DSSAT Cropping System Model Ver. 4.6.1.000 -release      OCT 02, 2017; 13:53:16
                                                                                
*RUN   4        : P04/17                    MZCER046 ANBU2002    4              
 MODEL          : MZCER046 - Maize                                              
 EXPERIMENT     : ANBU2002 MZ  Analisis a침os de bajo rendimiento Buga          
 DATA PATH      : C:\DSSAT46\maize\                                             
 TREATMENT  4   : P04/17                    MZCER046                            
                                                                                
                                                                                
 CROP           : Maize            CULTIVAR : P30F35           ECOTYPE :IB0001  
 STARTING DATE  : MAR 18 2002                                                   
 PLANTING DATE  : APR 17 2002        PLANTS/m2 :  6.2     ROW SPACING :  80.cm  
 WEATHER        : CUNI   2002                                                   
 SOIL           : CCBUGA2017     TEXTURE : CL    -   Suelo Buga MADR Fase I     
 SOIL INITIAL C : DEPTH: 90cm EXTR. H2O: 83.9mm  NO3:151.4kg/ha  NH4: 62.4kg/ha 
 WATER BALANCE  : RAINFED                                                       
 IRRIGATION     : NOT IRRIGATED                                                 
 NITROGEN BAL.  : SOIL-N & N-UPTAKE SIMULATION; NO N-FIXATION                   
 N-FERTILIZER   :      161 kg/ha IN     5 APPLICATIONS                          
 RESIDUE/MANURE : INITIAL :     0 kg/ha ;       0 kg/ha IN     0 APPLICATIONS   
 ENVIRONM. OPT. : DAYL=    0.00  SRAD=    0.00  TMAX=    0.00  TMIN=    0.00    
                  RAIN=    0.00  CO2 =    0.00  DEW =    0.00  WIND=    0.00    
 SIMULATION OPT : WATER   :Y  NITROGEN:Y  N-FIX:N  PHOSPH :N  PESTS  :N         
                  PHOTO   :C  ET      :R  INFIL:S  HYDROL :R  SOM    :G         
                  CO2 372ppm  NSWIT   :1  EVAP :S  SOIL   :2  STEMP  :D         
 MANAGEMENT OPT : PLANTING:R  IRRIG   :N  FERT :D  RESIDUE:R  HARVEST:M         
                  WEATHER :M  TILLAGE :N                                        
                                                                                
*SUMMARY OF SOIL AND GENETIC INPUT PARAMETERS                                   
                                                                                
   SOIL LOWER UPPER   SAT  EXTR  INIT   ROOT   BULK     pH    NO3    NH4    ORG 
  DEPTH LIMIT LIMIT    SW    SW    SW   DIST   DENS                          C  
   cm   cm3/cm3    cm3/cm3    cm3/cm3         g/cm3         ugN/g  ugN/g     %  
------------------------------------------------------------------------------- 
  0-  5 0.215 0.331 0.341 0.116 0.319   1.00   1.68   6.70  11.90   4.21   0.75 
  5- 15 0.215 0.331 0.341 0.116 0.319   1.00   1.68   6.70  11.90   4.21   0.75 
 15- 25 0.215 0.331 0.341 0.116 0.319   1.00   1.68   6.70  11.90   4.21   0.75 
 25- 35 0.181 0.291 0.364 0.110 0.331   0.50   1.61   7.20  12.15   4.32   0.53 
 35- 45 0.181 0.291 0.364 0.110 0.344   0.50   1.61   7.20  12.40   4.44   0.53 
 45- 67 0.096 0.169 0.404 0.073 0.290   0.27   1.51   7.00  10.67   4.47   0.05 
 67- 90 0.096 0.169 0.404 0.073 0.195   0.27   1.51   7.00   7.63   4.53   0.05 
                                                                                
TOT- 90  13.3  21.7  34.0   8.4  25.6  <--cm   -  kg/ha-->  151.4   62.4  51964 
SOIL ALBEDO    : 0.09      EVAPORATION LIMIT : 6.00         MIN. FACTOR  : 1.00 
RUNOFF CURVE # :76.00      DRAINAGE RATE     : 0.60         FERT. FACTOR : 1.00 
                                                                                
 Maize      CULTIVAR :CI0001-P30F35             ECOTYPE :IB0001                 
 P1     : 212.00  P2     : 0.3000  P5     : 925.00                              
 G2     : 954.00  G3     :  7.000  PHINT  : 50.000                              


*SIMULATED CROP AND SOIL STATUS AT MAIN DEVELOPMENT STAGES

 RUN NO.     4     P04/17                  

        CROP GROWTH     BIOMASS         LEAF   CROP N     STRESS      STRESS                                           
   DATE  AGE STAGE        kg/ha    LAI   NUM  kg/ha  %   H2O  Nitr Phos1 Phos2  RSTG                                   
 ------  --- ----------   -----  -----  ----  ---  ---  ----  ----  ----  ----  ----                                   
 18 MAR    0 Start Sim        0   0.00   0.0    0  0.0  0.00  0.00  0.00  0.00     7
 17 APR    0 Sowing           0   0.00   0.0    0  0.0  0.00  0.00  0.00  0.00     8
 18 APR    1 Germinate        0   0.00   0.0    0  0.0  0.00  0.00  0.00  0.00     9
 23 APR    6 Emergence       25   0.00   2.0    1  4.4  0.00  0.01  0.00  0.00     1
  6 MAY   19 End Juveni      75   0.16   6.9    3  3.4  0.00  0.00  0.00  0.00     2
 13 MAY   26 Floral Ini     260   0.49   9.3    9  3.6  0.00  0.00  0.00  0.00     3
 20 JUN   64 75% Silkin    5985   3.18  19.6  115  1.9  0.00  0.00  0.00  0.00     4
 30 JUN   74 Beg Gr Fil    7366   2.68  19.6  115  1.6  0.43  0.00  0.00  0.00     5
 12 AUG  117 End Gr Fil    8623   0.46  19.6  115  1.3  0.85  0.00  0.00  0.00     6
 14 AUG  119 Maturity      8623   0.46  19.6  115  1.3  0.81  0.00  0.00  0.00    10
 14 AUG  119 Harvest       8623   0.46  19.6  115  1.3  0.00  0.00  0.00  0.00    10


*MAIN GROWTH AND DEVELOPMENT VARIABLES

@     VARIABLE                                         SIMULATED     MEASURED
      --------                                         ---------     --------
      Anthesis day (dap)                                      64          -99
      Physiological maturity day (dap)                       119          -99
      Yield at harvest maturity (kg [dm]/ha)                2601          -99
      Number at maturity (no/m2)                            2301          -99
      Unit wt at maturity (g [dm]/unit)                   0.1130          -99
      Number at maturity (no/unit)                         371.2          -99
      Tops weight at maturity (kg [dm]/ha)                  8623          -99
      By-product produced (stalk) at maturity (kg[dm]/ha    6074          -99
      Leaf area index, maximum                              3.34          -99
      Harvest index at maturity                            0.302          -99
      Grain N at maturity (kg/ha)                             48          -99
      Tops N at maturity (kg/ha)                             115          -99
      Stem N at maturity (kg/ha)                              66          -99
      Grain N at maturity (%)                                1.9          -99
      Tops weight at anthesis (kg [dm]/ha)                  5622          -99
      Tops N at anthesis (kg/ha)                             109          -99
      Leaf number per stem at maturity                     19.55          -99
      Emergence day (dap)                                      6          -99


*ENVIRONMENTAL AND STRESS FACTORS

 |-----Development Phase------|--------------------------------------Environment--------------------------------------|-----------------Stress-----------------|
                              |---------------Average--------------|-----Cumulative-----|--------Count of days--------|          (0=Min, 1=Max Stress)         |
                         Time  Temp  Temp  Temp Solar Photop                Evapo    Pot TMIN TMIN TMAX TMAX TMAX RAIN|----Water----|---Nitrogen--|-Phosphorus-|
                         Span   Max   Min  Mean   Rad  [day]    CO2   Rain  Trans     ET   <    <    >    >    >    >   Photo         Photo         Photo
                         days    邂    邂    邂 MJ/m2     hr    ppm     mm     mm     mm  0邂  2邂 30邂 32邂 34邂  0mm  synth Growth  synth Growth  synth Growth
----------------------------------------------------------------------------------------------------------------------------------------------------------------
 Emergence-End Juvenile    13  29.1  19.5  24.3  14.4  24.00  372.5   64.0   37.7   51.8    0    0    6    0    0    7  0.000  0.000  0.002  0.005  0.000  0.000
 End Juvenil-Floral Init    7  28.5  19.8  24.1  14.7  24.00  372.5    0.3    8.9   27.1    0    0    0    0    0    1  0.000  0.000  0.001  0.002  0.000  0.000
 Floral Init-End Lf Grow   38  30.0  19.0  24.5  15.3  24.00  372.7  110.9  129.0  142.4    0    0   22    6    0   17  0.000  0.000  0.000  0.000  0.000  0.000
 End Lf Grth-Beg Grn Fil   10  28.9  19.5  24.2  16.8  24.00  372.9    7.0   29.9   39.4    0    0    3    0    0    1  0.252  0.360  0.000  0.000  0.000  0.000
 Grain Filling Phase       43  30.9  18.4  24.7  18.3  24.00  373.1   38.4   49.2  198.1    0    0   31   13    2    9  0.815  0.851  0.000  0.000  0.000  0.000


 Planting to Harvest      119  30.0  19.0  24.5  16.3  24.00  372.8  236.6  267.1  490.8    0    0   66   20    3   38  0.327  0.351  0.000  0.001  0.000  0.000
----------------------------------------------------------------------------------------------------------------------------------------------------------------


*Resource Productivity
 Growing season length: 119 days 

 Precipitation during growing season       236.6 mm[rain]
   Dry Matter Productivity                  3.64 kg[DM]/m3[rain]          =   36.4 kg[DM]/ha per mm[rain]
   Yield Productivity                       1.10 kg[grain yield]/m3[rain] =   11.0 kg[yield]/ha per mm[rain]

 Evapotranspiration during growing season  267.1 mm[ET]
   Dry Matter Productivity                  3.23 kg[DM]/m3[ET]            =   32.3 kg[DM]/ha per mm[ET]
   Yield Productivity                       0.97 kg[grain yield]/m3[ET]   =    9.7 kg[yield]/ha per mm[ET]

 Transpiration during growing season       148.7 mm[EP]
   Dry Matter Productivity                  5.80 kg[DM]/m3[EP]            =   58.0 kg[DM]/ha per mm[EP]
   Yield Productivity                       1.75 kg[grain yield]/m3[EP]   =   17.5 kg[yield]/ha per mm[EP]

 N applied during growing season            161. kg[N applied]/ha
   Dry Matter Productivity                  53.6 kg[DM]/kg[N applied]
   Yield Productivity                       16.2 kg[yield]/kg[N applied]

 N uptake during growing season              130 kg[N uptake]/ha
   Dry Matter Productivity                  66.3 kg[DM]/kg[N uptake]
   Yield Productivity                       20.0 kg[yield]/kg[N uptake]

--------------------------------------------------------------------------------------------------------------

                     Maize YIELD :     2601 kg/ha    [Dry weight] 

**************************************************************************************************************

*DSSAT Cropping System Model Ver. 4.6.1.000 -release      OCT 02, 2017; 13:53:17
                                                                                
*RUN   5        : P04/22                    MZCER046 ANBU2002    5              
 MODEL          : MZCER046 - Maize                                              
 EXPERIMENT     : ANBU2002 MZ  Analisis a침os de bajo rendimiento Buga          
 DATA PATH      : C:\DSSAT46\maize\                                             
 TREATMENT  5   : P04/22                    MZCER046                            
                                                                                
                                                                                
 CROP           : Maize            CULTIVAR : P30F35           ECOTYPE :IB0001  
 STARTING DATE  : MAR 23 2002                                                   
 PLANTING DATE  : APR 22 2002        PLANTS/m2 :  6.2     ROW SPACING :  80.cm  
 WEATHER        : CUNI   2002                                                   
 SOIL           : CCBUGA2017     TEXTURE : CL    -   Suelo Buga MADR Fase I     
 SOIL INITIAL C : DEPTH: 90cm EXTR. H2O: 83.9mm  NO3:151.4kg/ha  NH4: 62.4kg/ha 
 WATER BALANCE  : RAINFED                                                       
 IRRIGATION     : NOT IRRIGATED                                                 
 NITROGEN BAL.  : SOIL-N & N-UPTAKE SIMULATION; NO N-FIXATION                   
 N-FERTILIZER   :      161 kg/ha IN     5 APPLICATIONS                          
 RESIDUE/MANURE : INITIAL :     0 kg/ha ;       0 kg/ha IN     0 APPLICATIONS   
 ENVIRONM. OPT. : DAYL=    0.00  SRAD=    0.00  TMAX=    0.00  TMIN=    0.00    
                  RAIN=    0.00  CO2 =    0.00  DEW =    0.00  WIND=    0.00    
 SIMULATION OPT : WATER   :Y  NITROGEN:Y  N-FIX:N  PHOSPH :N  PESTS  :N         
                  PHOTO   :C  ET      :R  INFIL:S  HYDROL :R  SOM    :G         
                  CO2 372ppm  NSWIT   :1  EVAP :S  SOIL   :2  STEMP  :D         
 MANAGEMENT OPT : PLANTING:R  IRRIG   :N  FERT :D  RESIDUE:R  HARVEST:M         
                  WEATHER :M  TILLAGE :N                                        
                                                                                
*SUMMARY OF SOIL AND GENETIC INPUT PARAMETERS                                   
                                                                                
   SOIL LOWER UPPER   SAT  EXTR  INIT   ROOT   BULK     pH    NO3    NH4    ORG 
  DEPTH LIMIT LIMIT    SW    SW    SW   DIST   DENS                          C  
   cm   cm3/cm3    cm3/cm3    cm3/cm3         g/cm3         ugN/g  ugN/g     %  
------------------------------------------------------------------------------- 
  0-  5 0.215 0.331 0.341 0.116 0.319   1.00   1.68   6.70  11.90   4.21   0.75 
  5- 15 0.215 0.331 0.341 0.116 0.319   1.00   1.68   6.70  11.90   4.21   0.75 
 15- 25 0.215 0.331 0.341 0.116 0.319   1.00   1.68   6.70  11.90   4.21   0.75 
 25- 35 0.181 0.291 0.364 0.110 0.331   0.50   1.61   7.20  12.15   4.32   0.53 
 35- 45 0.181 0.291 0.364 0.110 0.344   0.50   1.61   7.20  12.40   4.44   0.53 
 45- 67 0.096 0.169 0.404 0.073 0.290   0.27   1.51   7.00  10.67   4.47   0.05 
 67- 90 0.096 0.169 0.404 0.073 0.195   0.27   1.51   7.00   7.63   4.53   0.05 
                                                                                
TOT- 90  13.3  21.7  34.0   8.4  25.6  <--cm   -  kg/ha-->  151.4   62.4  51964 
SOIL ALBEDO    : 0.09      EVAPORATION LIMIT : 6.00         MIN. FACTOR  : 1.00 
RUNOFF CURVE # :76.00      DRAINAGE RATE     : 0.60         FERT. FACTOR : 1.00 
                                                                                
 Maize      CULTIVAR :CI0001-P30F35             ECOTYPE :IB0001                 
 P1     : 212.00  P2     : 0.3000  P5     : 925.00                              
 G2     : 954.00  G3     :  7.000  PHINT  : 50.000                              


*SIMULATED CROP AND SOIL STATUS AT MAIN DEVELOPMENT STAGES

 RUN NO.     5     P04/22                  

        CROP GROWTH     BIOMASS         LEAF   CROP N     STRESS      STRESS                                           
   DATE  AGE STAGE        kg/ha    LAI   NUM  kg/ha  %   H2O  Nitr Phos1 Phos2  RSTG                                   
 ------  --- ----------   -----  -----  ----  ---  ---  ----  ----  ----  ----  ----                                   
 23 MAR    0 Start Sim        0   0.00   0.0    0  0.0  0.00  0.00  0.00  0.00     7
 22 APR    0 Sowing           0   0.00   0.0    0  0.0  0.00  0.00  0.00  0.00     8
 23 APR    1 Germinate        0   0.00   0.0    0  0.0  0.00  0.00  0.00  0.00     9
 28 APR    6 Emergence       25   0.00   2.0    1  4.4  0.00  0.01  0.00  0.00     1
 11 MAY   19 End Juveni      86   0.19   7.0    3  3.4  0.00  0.00  0.00  0.00     2
 18 MAY   26 Floral Ini     277   0.51   9.3   10  3.6  0.00  0.00  0.00  0.00     3
 24 JUN   63 75% Silkin    5958   3.20  19.3  115  1.9  0.00  0.00  0.00  0.00     4
  5 JUL   74 Beg Gr Fil    7172   2.47  19.3  117  1.6  0.61  0.00  0.00  0.00     5
 16 AUG  116 End Gr Fil    8390   0.45  19.3  117  1.4  0.85  0.00  0.00  0.00     6
 19 AUG  119 Maturity      8390   0.45  19.3  117  1.4  0.90  0.00  0.00  0.00    10
 19 AUG  119 Harvest       8390   0.45  19.3  117  1.4  0.00  0.00  0.00  0.00    10


*MAIN GROWTH AND DEVELOPMENT VARIABLES

@     VARIABLE                                         SIMULATED     MEASURED
      --------                                         ---------     --------
      Anthesis day (dap)                                      63          -99
      Physiological maturity day (dap)                       119          -99
      Yield at harvest maturity (kg [dm]/ha)                2716          -99
      Number at maturity (no/m2)                            1974          -99
      Unit wt at maturity (g [dm]/unit)                   0.1376          -99
      Number at maturity (no/unit)                         318.3          -99
      Tops weight at maturity (kg [dm]/ha)                  8390          -99
      By-product produced (stalk) at maturity (kg[dm]/ha    5728          -99
      Leaf area index, maximum                              3.36          -99
      Harvest index at maturity                            0.324          -99
      Grain N at maturity (kg/ha)                             51          -99
      Tops N at maturity (kg/ha)                             117          -99
      Stem N at maturity (kg/ha)                              67          -99
      Grain N at maturity (%)                                1.9          -99
      Tops weight at anthesis (kg [dm]/ha)                  5680          -99
      Tops N at anthesis (kg/ha)                             113          -99
      Leaf number per stem at maturity                     19.34          -99
      Emergence day (dap)                                      6          -99


*ENVIRONMENTAL AND STRESS FACTORS

 |-----Development Phase------|--------------------------------------Environment--------------------------------------|-----------------Stress-----------------|
                              |---------------Average--------------|-----Cumulative-----|--------Count of days--------|          (0=Min, 1=Max Stress)         |
                         Time  Temp  Temp  Temp Solar Photop                Evapo    Pot TMIN TMIN TMAX TMAX TMAX RAIN|----Water----|---Nitrogen--|-Phosphorus-|
                         Span   Max   Min  Mean   Rad  [day]    CO2   Rain  Trans     ET   <    <    >    >    >    >   Photo         Photo         Photo
                         days    邂    邂    邂 MJ/m2     hr    ppm     mm     mm     mm  0邂  2邂 30邂 32邂 34邂  0mm  synth Growth  synth Growth  synth Growth
----------------------------------------------------------------------------------------------------------------------------------------------------------------
 Emergence-End Juvenile    13  29.0  19.4  24.2  15.0  24.00  372.5    7.3   25.9   53.1    0    0    4    0    0    3  0.000  0.000  0.002  0.005  0.000  0.000
 End Juvenil-Floral Init    7  27.4  20.5  24.0  13.5  24.00  372.6    1.3    7.7   24.7    0    0    0    0    0    1  0.000  0.000  0.001  0.002  0.000  0.000
 Floral Init-End Lf Grow   37  30.3  18.9  24.6  15.9  24.00  372.8  109.6  133.3  144.5    0    0   24    6    0   16  0.000  0.000  0.000  0.000  0.000  0.000
 End Lf Grth-Beg Grn Fil   11  29.4  19.2  24.3  17.8  24.00  372.9    7.0   28.8   46.2    0    0    5    1    0    1  0.391  0.533  0.000  0.000  0.000  0.000
 Grain Filling Phase       42  31.1  18.3  24.7  18.4  24.00  373.1   38.4   47.1  196.1    0    0   30   14    3    9  0.810  0.849  0.000  0.000  0.000  0.000


 Planting to Harvest      119  30.1  18.9  24.5  16.6  24.00  372.9  220.6  264.8  499.9    0    0   67   21    3   35  0.343  0.372  0.000  0.001  0.000  0.000
----------------------------------------------------------------------------------------------------------------------------------------------------------------


*Resource Productivity
 Growing season length: 119 days 

 Precipitation during growing season       220.6 mm[rain]
   Dry Matter Productivity                  3.80 kg[DM]/m3[rain]          =   38.0 kg[DM]/ha per mm[rain]
   Yield Productivity                       1.23 kg[grain yield]/m3[rain] =   12.3 kg[yield]/ha per mm[rain]

 Evapotranspiration during growing season  264.8 mm[ET]
   Dry Matter Productivity                  3.17 kg[DM]/m3[ET]            =   31.7 kg[DM]/ha per mm[ET]
   Yield Productivity                       1.03 kg[grain yield]/m3[ET]   =   10.3 kg[yield]/ha per mm[ET]

 Transpiration during growing season       144.3 mm[EP]
   Dry Matter Productivity                  5.81 kg[DM]/m3[EP]            =   58.1 kg[DM]/ha per mm[EP]
   Yield Productivity                       1.88 kg[grain yield]/m3[EP]   =   18.8 kg[yield]/ha per mm[EP]

 N applied during growing season            161. kg[N applied]/ha
   Dry Matter Productivity                  52.1 kg[DM]/kg[N applied]
   Yield Productivity                       16.9 kg[yield]/kg[N applied]

 N uptake during growing season              133 kg[N uptake]/ha
   Dry Matter Productivity                  63.1 kg[DM]/kg[N uptake]
   Yield Productivity                       20.4 kg[yield]/kg[N uptake]

--------------------------------------------------------------------------------------------------------------

                     Maize YIELD :     2716 kg/ha    [Dry weight] 

**************************************************************************************************************

*DSSAT Cropping System Model Ver. 4.6.1.000 -release      OCT 02, 2017; 13:53:17
                                                                                
*RUN   6        : P04/27                    MZCER046 ANBU2002    6              
 MODEL          : MZCER046 - Maize                                              
 EXPERIMENT     : ANBU2002 MZ  Analisis a침os de bajo rendimiento Buga          
 DATA PATH      : C:\DSSAT46\maize\                                             
 TREATMENT  6   : P04/27                    MZCER046                            
                                                                                
                                                                                
 CROP           : Maize            CULTIVAR : P30F35           ECOTYPE :IB0001  
 STARTING DATE  : MAR 28 2002                                                   
 PLANTING DATE  : APR 27 2002        PLANTS/m2 :  6.2     ROW SPACING :  80.cm  
 WEATHER        : CUNI   2002                                                   
 SOIL           : CCBUGA2017     TEXTURE : CL    -   Suelo Buga MADR Fase I     
 SOIL INITIAL C : DEPTH: 90cm EXTR. H2O: 83.9mm  NO3:151.4kg/ha  NH4: 62.4kg/ha 
 WATER BALANCE  : RAINFED                                                       
 IRRIGATION     : NOT IRRIGATED                                                 
 NITROGEN BAL.  : SOIL-N & N-UPTAKE SIMULATION; NO N-FIXATION                   
 N-FERTILIZER   :      161 kg/ha IN     5 APPLICATIONS                          
 RESIDUE/MANURE : INITIAL :     0 kg/ha ;       0 kg/ha IN     0 APPLICATIONS   
 ENVIRONM. OPT. : DAYL=    0.00  SRAD=    0.00  TMAX=    0.00  TMIN=    0.00    
                  RAIN=    0.00  CO2 =    0.00  DEW =    0.00  WIND=    0.00    
 SIMULATION OPT : WATER   :Y  NITROGEN:Y  N-FIX:N  PHOSPH :N  PESTS  :N         
                  PHOTO   :C  ET      :R  INFIL:S  HYDROL :R  SOM    :G         
                  CO2 372ppm  NSWIT   :1  EVAP :S  SOIL   :2  STEMP  :D         
 MANAGEMENT OPT : PLANTING:R  IRRIG   :N  FERT :D  RESIDUE:R  HARVEST:M         
                  WEATHER :M  TILLAGE :N                                        
                                                                                
*SUMMARY OF SOIL AND GENETIC INPUT PARAMETERS                                   
                                                                                
   SOIL LOWER UPPER   SAT  EXTR  INIT   ROOT   BULK     pH    NO3    NH4    ORG 
  DEPTH LIMIT LIMIT    SW    SW    SW   DIST   DENS                          C  
   cm   cm3/cm3    cm3/cm3    cm3/cm3         g/cm3         ugN/g  ugN/g     %  
------------------------------------------------------------------------------- 
  0-  5 0.215 0.331 0.341 0.116 0.319   1.00   1.68   6.70  11.90   4.21   0.75 
  5- 15 0.215 0.331 0.341 0.116 0.319   1.00   1.68   6.70  11.90   4.21   0.75 
 15- 25 0.215 0.331 0.341 0.116 0.319   1.00   1.68   6.70  11.90   4.21   0.75 
 25- 35 0.181 0.291 0.364 0.110 0.331   0.50   1.61   7.20  12.15   4.32   0.53 
 35- 45 0.181 0.291 0.364 0.110 0.344   0.50   1.61   7.20  12.40   4.44   0.53 
 45- 67 0.096 0.169 0.404 0.073 0.290   0.27   1.51   7.00  10.67   4.47   0.05 
 67- 90 0.096 0.169 0.404 0.073 0.195   0.27   1.51   7.00   7.63   4.53   0.05 
                                                                                
TOT- 90  13.3  21.7  34.0   8.4  25.6  <--cm   -  kg/ha-->  151.4   62.4  51964 
SOIL ALBEDO    : 0.09      EVAPORATION LIMIT : 6.00         MIN. FACTOR  : 1.00 
RUNOFF CURVE # :76.00      DRAINAGE RATE     : 0.60         FERT. FACTOR : 1.00 
                                                                                
 Maize      CULTIVAR :CI0001-P30F35             ECOTYPE :IB0001                 
 P1     : 212.00  P2     : 0.3000  P5     : 925.00                              
 G2     : 954.00  G3     :  7.000  PHINT  : 50.000                              


*SIMULATED CROP AND SOIL STATUS AT MAIN DEVELOPMENT STAGES

 RUN NO.     6     P04/27                  

        CROP GROWTH     BIOMASS         LEAF   CROP N     STRESS      STRESS                                           
   DATE  AGE STAGE        kg/ha    LAI   NUM  kg/ha  %   H2O  Nitr Phos1 Phos2  RSTG                                   
 ------  --- ----------   -----  -----  ----  ---  ---  ----  ----  ----  ----  ----                                   
 28 MAR    0 Start Sim        0   0.00   0.0    0  0.0  0.00  0.00  0.00  0.00     7
 27 APR    0 Sowing           0   0.00   0.0    0  0.0  0.00  0.00  0.00  0.00     8
 28 APR    1 Germinate        0   0.00   0.0    0  0.0  0.00  0.00  0.00  0.00     9
  3 MAY    6 Emergence       25   0.00   2.0    1  4.4  0.00  0.01  0.00  0.00     1
 16 MAY   19 End Juveni      86   0.19   6.9    3  3.4  0.00  0.00  0.00  0.00     2
 23 MAY   26 Floral Ini     265   0.49   9.3   10  3.6  0.00  0.00  0.00  0.00     3
 30 JUN   64 75% Silkin    6019   3.11  19.7  122  2.0  0.03  0.00  0.00  0.00     4
 10 JUL   74 Beg Gr Fil    6530   2.23  19.7  122  1.9  0.77  0.00  0.00  0.00     5
 22 AUG  117 End Gr Fil    7650   0.38  19.7  122  1.6  0.86  0.00  0.00  0.00     6
 24 AUG  119 Maturity      7650   0.38  19.7  122  1.6  1.00  0.00  0.00  0.00    10
 24 AUG  119 Harvest       7650   0.38  19.7  122  1.6  0.00  0.00  0.00  0.00    10


*MAIN GROWTH AND DEVELOPMENT VARIABLES

@     VARIABLE                                         SIMULATED     MEASURED
      --------                                         ---------     --------
      Anthesis day (dap)                                      64          -99
      Physiological maturity day (dap)                       119          -99
      Yield at harvest maturity (kg [dm]/ha)                2249          -99
      Number at maturity (no/m2)                            1354          -99
      Unit wt at maturity (g [dm]/unit)                   0.1661          -99
      Number at maturity (no/unit)                         218.3          -99
      Tops weight at maturity (kg [dm]/ha)                  7650          -99
      By-product produced (stalk) at maturity (kg[dm]/ha    5453          -99
      Leaf area index, maximum                              3.24          -99
      Harvest index at maturity                            0.294          -99
      Grain N at maturity (kg/ha)                             42          -99
      Tops N at maturity (kg/ha)                             122          -99
      Stem N at maturity (kg/ha)                              80          -99
      Grain N at maturity (%)                                1.9          -99
      Tops weight at anthesis (kg [dm]/ha)                  5815          -99
      Tops N at anthesis (kg/ha)                             116          -99
      Leaf number per stem at maturity                     19.65          -99
      Emergence day (dap)                                      6          -99


*ENVIRONMENTAL AND STRESS FACTORS

 |-----Development Phase------|--------------------------------------Environment--------------------------------------|-----------------Stress-----------------|
                              |---------------Average--------------|-----Cumulative-----|--------Count of days--------|          (0=Min, 1=Max Stress)         |
                         Time  Temp  Temp  Temp Solar Photop                Evapo    Pot TMIN TMIN TMAX TMAX TMAX RAIN|----Water----|---Nitrogen--|-Phosphorus-|
                         Span   Max   Min  Mean   Rad  [day]    CO2   Rain  Trans     ET   <    <    >    >    >    >   Photo         Photo         Photo
                         days    邂    邂    邂 MJ/m2     hr    ppm     mm     mm     mm  0邂  2邂 30邂 32邂 34邂  0mm  synth Growth  synth Growth  synth Growth
----------------------------------------------------------------------------------------------------------------------------------------------------------------
 Emergence-End Juvenile    13  28.2  20.0  24.1  14.4  24.00  372.5    0.3   10.6   50.4    0    0    1    0    0    1  0.000  0.000  0.002  0.005  0.000  0.000
 End Juvenil-Floral Init    7  28.8  20.1  24.5  12.7  24.00  372.7   22.3   11.7   23.8    0    0    2    0    0    4  0.000  0.000  0.001  0.002  0.000  0.000
 Floral Init-End Lf Grow   38  30.2  18.8  24.5  16.4  24.00  372.8   95.6  140.7  152.9    0    0   23    6    0   14  0.006  0.016  0.000  0.000  0.000  0.000
 End Lf Grth-Beg Grn Fil   10  30.0  18.9  24.5  18.2  24.00  372.9    3.8   19.2   43.4    0    0    6    1    0    2  0.625  0.751  0.000  0.000  0.000  0.000
 Grain Filling Phase       43  31.2  18.2  24.7  18.5  24.00  373.1   34.6   46.4  202.7    0    0   32   17    4    7  0.815  0.854  0.000  0.000  0.000  0.000


 Planting to Harvest      119  30.2  18.8  24.5  16.8  24.00  372.9  170.6  250.5  507.0    0    0   68   24    4   31  0.365  0.393  0.000  0.001  0.000  0.000
----------------------------------------------------------------------------------------------------------------------------------------------------------------


*Resource Productivity
 Growing season length: 119 days 

 Precipitation during growing season       170.6 mm[rain]
   Dry Matter Productivity                  4.48 kg[DM]/m3[rain]          =   44.8 kg[DM]/ha per mm[rain]
   Yield Productivity                       1.32 kg[grain yield]/m3[rain] =   13.2 kg[yield]/ha per mm[rain]

 Evapotranspiration during growing season  250.5 mm[ET]
   Dry Matter Productivity                  3.05 kg[DM]/m3[ET]            =   30.5 kg[DM]/ha per mm[ET]
   Yield Productivity                       0.90 kg[grain yield]/m3[ET]   =    9.0 kg[yield]/ha per mm[ET]

 Transpiration during growing season       134.5 mm[EP]
   Dry Matter Productivity                  5.69 kg[DM]/m3[EP]            =   56.9 kg[DM]/ha per mm[EP]
   Yield Productivity                       1.67 kg[grain yield]/m3[EP]   =   16.7 kg[yield]/ha per mm[EP]

 N applied during growing season            161. kg[N applied]/ha
   Dry Matter Productivity                  47.5 kg[DM]/kg[N applied]
   Yield Productivity                       14.0 kg[yield]/kg[N applied]

 N uptake during growing season              137 kg[N uptake]/ha
   Dry Matter Productivity                  55.8 kg[DM]/kg[N uptake]
   Yield Productivity                       16.4 kg[yield]/kg[N uptake]

--------------------------------------------------------------------------------------------------------------

                     Maize YIELD :     2249 kg/ha    [Dry weight] 

**************************************************************************************************************

*DSSAT Cropping System Model Ver. 4.6.1.000 -release      OCT 02, 2017; 13:53:17
                                                                                
*RUN   7        : P05/02                    MZCER046 ANBU2002    7              
 MODEL          : MZCER046 - Maize                                              
 EXPERIMENT     : ANBU2002 MZ  Analisis a침os de bajo rendimiento Buga          
 DATA PATH      : C:\DSSAT46\maize\                                             
 TREATMENT  7   : P05/02                    MZCER046                            
                                                                                
                                                                                
 CROP           : Maize            CULTIVAR : P30F35           ECOTYPE :IB0001  
 STARTING DATE  : APR  2 2002                                                   
 PLANTING DATE  : MAY  2 2002        PLANTS/m2 :  6.2     ROW SPACING :  80.cm  
 WEATHER        : CUNI   2002                                                   
 SOIL           : CCBUGA2017     TEXTURE : CL    -   Suelo Buga MADR Fase I     
 SOIL INITIAL C : DEPTH: 90cm EXTR. H2O: 83.9mm  NO3:151.4kg/ha  NH4: 62.4kg/ha 
 WATER BALANCE  : RAINFED                                                       
 IRRIGATION     : NOT IRRIGATED                                                 
 NITROGEN BAL.  : SOIL-N & N-UPTAKE SIMULATION; NO N-FIXATION                   
 N-FERTILIZER   :      161 kg/ha IN     5 APPLICATIONS                          
 RESIDUE/MANURE : INITIAL :     0 kg/ha ;       0 kg/ha IN     0 APPLICATIONS   
 ENVIRONM. OPT. : DAYL=    0.00  SRAD=    0.00  TMAX=    0.00  TMIN=    0.00    
                  RAIN=    0.00  CO2 =    0.00  DEW =    0.00  WIND=    0.00    
 SIMULATION OPT : WATER   :Y  NITROGEN:Y  N-FIX:N  PHOSPH :N  PESTS  :N         
                  PHOTO   :C  ET      :R  INFIL:S  HYDROL :R  SOM    :G         
                  CO2 372ppm  NSWIT   :1  EVAP :S  SOIL   :2  STEMP  :D         
 MANAGEMENT OPT : PLANTING:R  IRRIG   :N  FERT :D  RESIDUE:R  HARVEST:M         
                  WEATHER :M  TILLAGE :N                                        
                                                                                
*SUMMARY OF SOIL AND GENETIC INPUT PARAMETERS                                   
                                                                                
   SOIL LOWER UPPER   SAT  EXTR  INIT   ROOT   BULK     pH    NO3    NH4    ORG 
  DEPTH LIMIT LIMIT    SW    SW    SW   DIST   DENS                          C  
   cm   cm3/cm3    cm3/cm3    cm3/cm3         g/cm3         ugN/g  ugN/g     %  
------------------------------------------------------------------------------- 
  0-  5 0.215 0.331 0.341 0.116 0.319   1.00   1.68   6.70  11.90   4.21   0.75 
  5- 15 0.215 0.331 0.341 0.116 0.319   1.00   1.68   6.70  11.90   4.21   0.75 
 15- 25 0.215 0.331 0.341 0.116 0.319   1.00   1.68   6.70  11.90   4.21   0.75 
 25- 35 0.181 0.291 0.364 0.110 0.331   0.50   1.61   7.20  12.15   4.32   0.53 
 35- 45 0.181 0.291 0.364 0.110 0.344   0.50   1.61   7.20  12.40   4.44   0.53 
 45- 67 0.096 0.169 0.404 0.073 0.290   0.27   1.51   7.00  10.67   4.47   0.05 
 67- 90 0.096 0.169 0.404 0.073 0.195   0.27   1.51   7.00   7.63   4.53   0.05 
                                                                                
TOT- 90  13.3  21.7  34.0   8.4  25.6  <--cm   -  kg/ha-->  151.4   62.4  51964 
SOIL ALBEDO    : 0.09      EVAPORATION LIMIT : 6.00         MIN. FACTOR  : 1.00 
RUNOFF CURVE # :76.00      DRAINAGE RATE     : 0.60         FERT. FACTOR : 1.00 
                                                                                
 Maize      CULTIVAR :CI0001-P30F35             ECOTYPE :IB0001                 
 P1     : 212.00  P2     : 0.3000  P5     : 925.00                              
 G2     : 954.00  G3     :  7.000  PHINT  : 50.000                              


*SIMULATED CROP AND SOIL STATUS AT MAIN DEVELOPMENT STAGES

 RUN NO.     7     P05/02                  

        CROP GROWTH     BIOMASS         LEAF   CROP N     STRESS      STRESS                                           
   DATE  AGE STAGE        kg/ha    LAI   NUM  kg/ha  %   H2O  Nitr Phos1 Phos2  RSTG                                   
 ------  --- ----------   -----  -----  ----  ---  ---  ----  ----  ----  ----  ----                                   
  2 APR    0 Start Sim        0   0.00   0.0    0  0.0  0.00  0.00  0.00  0.00     7
  2 MAY    0 Sowing           0   0.00   0.0    0  0.0  0.00  0.00  0.00  0.00     8
  3 MAY    1 Germinate        0   0.00   0.0    0  0.0  0.00  0.00  0.00  0.00     9
  8 MAY    6 Emergence       25   0.00   2.0    1  4.4  0.00  0.01  0.00  0.00     1
 21 MAY   19 End Juveni      88   0.19   7.0    3  3.4  0.01  0.00  0.00  0.00     2
 28 MAY   26 Floral Ini     199   0.39   9.4    7  3.6  0.00  0.00  0.00  0.00     3
  5 JUL   64 75% Silkin    5001   2.53  19.6  104  2.1  0.12  0.00  0.00  0.00     4
 15 JUL   74 Beg Gr Fil    5166   1.70  19.6  104  2.0  0.86  0.00  0.00  0.00     5
 26 AUG  116 End Gr Fil    6017   0.30  19.6  104  1.7  0.86  0.00  0.00  0.00     6
 29 AUG  119 Maturity      6017   0.30  19.6  104  1.7  0.30  0.00  0.00  0.00    10
 29 AUG  119 Harvest       6017   0.30  19.6  104  1.7  0.00  0.00  0.00  0.00    10


*MAIN GROWTH AND DEVELOPMENT VARIABLES

@     VARIABLE                                         SIMULATED     MEASURED
      --------                                         ---------     --------
      Anthesis day (dap)                                      64          -99
      Physiological maturity day (dap)                       119          -99
      Yield at harvest maturity (kg [dm]/ha)                1386          -99
      Number at maturity (no/m2)                             858          -99
      Unit wt at maturity (g [dm]/unit)                   0.1615          -99
      Number at maturity (no/unit)                         139.6          -99
      Tops weight at maturity (kg [dm]/ha)                  6017          -99
      By-product produced (stalk) at maturity (kg[dm]/ha    4678          -99
      Leaf area index, maximum                              2.85          -99
      Harvest index at maturity                            0.230          -99
      Grain N at maturity (kg/ha)                             26          -99
      Tops N at maturity (kg/ha)                             104          -99
      Stem N at maturity (kg/ha)                              78          -99
      Grain N at maturity (%)                                1.9          -99
      Tops weight at anthesis (kg [dm]/ha)                  4931          -99
      Tops N at anthesis (kg/ha)                             104          -99
      Leaf number per stem at maturity                     19.63          -99
      Emergence day (dap)                                      6          -99


*ENVIRONMENTAL AND STRESS FACTORS

 |-----Development Phase------|--------------------------------------Environment--------------------------------------|-----------------Stress-----------------|
                              |---------------Average--------------|-----Cumulative-----|--------Count of days--------|          (0=Min, 1=Max Stress)         |
                         Time  Temp  Temp  Temp Solar Photop                Evapo    Pot TMIN TMIN TMAX TMAX TMAX RAIN|----Water----|---Nitrogen--|-Phosphorus-|
                         Span   Max   Min  Mean   Rad  [day]    CO2   Rain  Trans     ET   <    <    >    >    >    >   Photo         Photo         Photo
                         days    邂    邂    邂 MJ/m2     hr    ppm     mm     mm     mm  0邂  2邂 30邂 32邂 34邂  0mm  synth Growth  synth Growth  synth Growth
----------------------------------------------------------------------------------------------------------------------------------------------------------------
 Emergence-End Juvenile    13  28.5  20.2  24.3  13.9  24.00  372.6   21.6   10.4   48.9    0    0    2    0    0    4  0.000  0.008  0.002  0.005  0.000  0.000
 End Juvenil-Floral Init    7  30.3  18.8  24.6  15.1  24.00  372.7   23.2   21.9   28.7    0    0    4    2    0    4  0.000  0.000  0.001  0.002  0.000  0.000
 Floral Init-End Lf Grow   38  30.1  18.9  24.5  16.7  24.00  372.8   73.4  129.8  156.9    0    0   23    5    0   11  0.066  0.097  0.000  0.000  0.000  0.000
 End Lf Grth-Beg Grn Fil   10  30.8  18.5  24.6  17.1  24.00  372.9    6.6   14.2   41.5    0    0    6    3    0    4  0.751  0.834  0.000  0.000  0.000  0.000
 Grain Filling Phase       42  31.1  18.3  24.7  18.8  24.00  373.2   38.3   42.4  203.1    0    0   31   14    4    7  0.824  0.859  0.000  0.000  0.000  0.000


 Planting to Harvest      119  30.3  18.8  24.6  16.9  24.00  372.9  168.3  228.5  515.2    0    0   69   24    4   33  0.389  0.420  0.000  0.001  0.000  0.000
----------------------------------------------------------------------------------------------------------------------------------------------------------------


*Resource Productivity
 Growing season length: 119 days 

 Precipitation during growing season       168.3 mm[rain]
   Dry Matter Productivity                  3.58 kg[DM]/m3[rain]          =   35.8 kg[DM]/ha per mm[rain]
   Yield Productivity                       0.82 kg[grain yield]/m3[rain] =    8.2 kg[yield]/ha per mm[rain]

 Evapotranspiration during growing season  228.5 mm[ET]
   Dry Matter Productivity                  2.63 kg[DM]/m3[ET]            =   26.3 kg[DM]/ha per mm[ET]
   Yield Productivity                       0.61 kg[grain yield]/m3[ET]   =    6.1 kg[yield]/ha per mm[ET]

 Transpiration during growing season       117.3 mm[EP]
   Dry Matter Productivity                  5.13 kg[DM]/m3[EP]            =   51.3 kg[DM]/ha per mm[EP]
   Yield Productivity                       1.18 kg[grain yield]/m3[EP]   =   11.8 kg[yield]/ha per mm[EP]

 N applied during growing season            161. kg[N applied]/ha
   Dry Matter Productivity                  37.4 kg[DM]/kg[N applied]
   Yield Productivity                        8.6 kg[yield]/kg[N applied]

 N uptake during growing season              120 kg[N uptake]/ha
   Dry Matter Productivity                  50.1 kg[DM]/kg[N uptake]
   Yield Productivity                       11.6 kg[yield]/kg[N uptake]

--------------------------------------------------------------------------------------------------------------

                     Maize YIELD :     1386 kg/ha    [Dry weight] 

**************************************************************************************************************

*DSSAT Cropping System Model Ver. 4.6.1.000 -release      OCT 02, 2017; 13:53:17
                                                                                
*RUN   8        : P05/07                    MZCER046 ANBU2002    8              
 MODEL          : MZCER046 - Maize                                              
 EXPERIMENT     : ANBU2002 MZ  Analisis a침os de bajo rendimiento Buga          
 DATA PATH      : C:\DSSAT46\maize\                                             
 TREATMENT  8   : P05/07                    MZCER046                            
                                                                                
                                                                                
 CROP           : Maize            CULTIVAR : P30F35           ECOTYPE :IB0001  
 STARTING DATE  : APR  7 2002                                                   
 PLANTING DATE  : MAY  7 2002        PLANTS/m2 :  6.2     ROW SPACING :  80.cm  
 WEATHER        : CUNI   2002                                                   
 SOIL           : CCBUGA2017     TEXTURE : CL    -   Suelo Buga MADR Fase I     
 SOIL INITIAL C : DEPTH: 90cm EXTR. H2O: 83.9mm  NO3:151.4kg/ha  NH4: 62.4kg/ha 
 WATER BALANCE  : RAINFED                                                       
 IRRIGATION     : NOT IRRIGATED                                                 
 NITROGEN BAL.  : SOIL-N & N-UPTAKE SIMULATION; NO N-FIXATION                   
 N-FERTILIZER   :      161 kg/ha IN     5 APPLICATIONS                          
 RESIDUE/MANURE : INITIAL :     0 kg/ha ;       0 kg/ha IN     0 APPLICATIONS   
 ENVIRONM. OPT. : DAYL=    0.00  SRAD=    0.00  TMAX=    0.00  TMIN=    0.00    
                  RAIN=    0.00  CO2 =    0.00  DEW =    0.00  WIND=    0.00    
 SIMULATION OPT : WATER   :Y  NITROGEN:Y  N-FIX:N  PHOSPH :N  PESTS  :N         
                  PHOTO   :C  ET      :R  INFIL:S  HYDROL :R  SOM    :G         
                  CO2 372ppm  NSWIT   :1  EVAP :S  SOIL   :2  STEMP  :D         
 MANAGEMENT OPT : PLANTING:R  IRRIG   :N  FERT :D  RESIDUE:R  HARVEST:M         
                  WEATHER :M  TILLAGE :N                                        
                                                                                
*SUMMARY OF SOIL AND GENETIC INPUT PARAMETERS                                   
                                                                                
   SOIL LOWER UPPER   SAT  EXTR  INIT   ROOT   BULK     pH    NO3    NH4    ORG 
  DEPTH LIMIT LIMIT    SW    SW    SW   DIST   DENS                          C  
   cm   cm3/cm3    cm3/cm3    cm3/cm3         g/cm3         ugN/g  ugN/g     %  
------------------------------------------------------------------------------- 
  0-  5 0.215 0.331 0.341 0.116 0.319   1.00   1.68   6.70  11.90   4.21   0.75 
  5- 15 0.215 0.331 0.341 0.116 0.319   1.00   1.68   6.70  11.90   4.21   0.75 
 15- 25 0.215 0.331 0.341 0.116 0.319   1.00   1.68   6.70  11.90   4.21   0.75 
 25- 35 0.181 0.291 0.364 0.110 0.331   0.50   1.61   7.20  12.15   4.32   0.53 
 35- 45 0.181 0.291 0.364 0.110 0.344   0.50   1.61   7.20  12.40   4.44   0.53 
 45- 67 0.096 0.169 0.404 0.073 0.290   0.27   1.51   7.00  10.67   4.47   0.05 
 67- 90 0.096 0.169 0.404 0.073 0.195   0.27   1.51   7.00   7.63   4.53   0.05 
                                                                                
TOT- 90  13.3  21.7  34.0   8.4  25.6  <--cm   -  kg/ha-->  151.4   62.4  51964 
SOIL ALBEDO    : 0.09      EVAPORATION LIMIT : 6.00         MIN. FACTOR  : 1.00 
RUNOFF CURVE # :76.00      DRAINAGE RATE     : 0.60         FERT. FACTOR : 1.00 
                                                                                
 Maize      CULTIVAR :CI0001-P30F35             ECOTYPE :IB0001                 
 P1     : 212.00  P2     : 0.3000  P5     : 925.00                              
 G2     : 954.00  G3     :  7.000  PHINT  : 50.000                              


*SIMULATED CROP AND SOIL STATUS AT MAIN DEVELOPMENT STAGES

 RUN NO.     8     P05/07                  

        CROP GROWTH     BIOMASS         LEAF   CROP N     STRESS      STRESS                                           
   DATE  AGE STAGE        kg/ha    LAI   NUM  kg/ha  %   H2O  Nitr Phos1 Phos2  RSTG                                   
 ------  --- ----------   -----  -----  ----  ---  ---  ----  ----  ----  ----  ----                                   
  7 APR    0 Start Sim        0   0.00   0.0    0  0.0  0.00  0.00  0.00  0.00     7
  7 MAY    0 Sowing           0   0.00   0.0    0  0.0  0.00  0.00  0.00  0.00     8
  8 MAY    1 Germinate        0   0.00   0.0    0  0.0  0.00  0.00  0.00  0.00     9
 13 MAY    6 Emergence       25   0.00   1.9    1  4.4  0.00  0.01  0.00  0.00     1
 25 MAY   18 End Juveni      57   0.13   6.7    2  3.6  0.00  0.00  0.00  0.00     2
  1 JUN   25 Floral Ini     161   0.32   9.0    6  3.6  0.00  0.00  0.00  0.00     3
  8 JUL   62 75% Silkin    4321   2.07  19.0   94  2.2  0.18  0.00  0.00  0.00     4
 18 JUL   72 Beg Gr Fil    4422   1.43  19.0   94  2.1  0.78  0.00  0.00  0.00     5
 29 AUG  114 End Gr Fil    5238   0.27  19.0   94  1.8  0.82  0.00  0.00  0.00     6
  1 SEP  117 Maturity      5238   0.27  19.0   94  1.8  0.50  0.00  0.00  0.00    10
[...]
 NITROGEN BAL.  : SOIL-N & N-UPTAKE SIMULATION; NO N-FIXATION                   
 N-FERTILIZER   :      161 kg/ha IN     5 APPLICATIONS                          
 RESIDUE/MANURE : INITIAL :     0 kg/ha ;       0 kg/ha IN     0 APPLICATIONS   
 ENVIRONM. OPT. : DAYL=    0.00  SRAD=    0.00  TMAX=    0.00  TMIN=    0.00    
                  RAIN=    0.00  CO2 =    0.00  DEW =    0.00  WIND=    0.00    
 SIMULATION OPT : WATER   :Y  NITROGEN:Y  N-FIX:N  PHOSPH :N  PESTS  :N         
                  PHOTO   :C  ET      :R  INFIL:S  HYDROL :R  SOM    :G         
                  CO2 374ppm  NSWIT   :1  EVAP :S  SOIL   :2  STEMP  :D         
 MANAGEMENT OPT : PLANTING:R  IRRIG   :N  FERT :D  RESIDUE:R  HARVEST:M         
                  WEATHER :M  TILLAGE :N                                        
                                                                                
*SUMMARY OF SOIL AND GENETIC INPUT PARAMETERS                                   
                                                                                
   SOIL LOWER UPPER   SAT  EXTR  INIT   ROOT   BULK     pH    NO3    NH4    ORG 
  DEPTH LIMIT LIMIT    SW    SW    SW   DIST   DENS                          C  
   cm   cm3/cm3    cm3/cm3    cm3/cm3         g/cm3         ugN/g  ugN/g     %  
------------------------------------------------------------------------------- 
  0-  5 0.215 0.331 0.341 0.116 0.319   1.00   1.68   6.70  11.90   4.21   0.75 
  5- 15 0.215 0.331 0.341 0.116 0.319   1.00   1.68   6.70  11.90   4.21   0.75 
 15- 25 0.215 0.331 0.341 0.116 0.319   1.00   1.68   6.70  11.90   4.21   0.75 
 25- 35 0.181 0.291 0.364 0.110 0.331   0.50   1.61   7.20  12.15   4.32   0.53 
 35- 45 0.181 0.291 0.364 0.110 0.344   0.50   1.61   7.20  12.40   4.44   0.53 
 45- 67 0.096 0.169 0.404 0.073 0.290   0.27   1.51   7.00  10.67   4.47   0.05 
 67- 90 0.096 0.169 0.404 0.073 0.195   0.27   1.51   7.00   7.63   4.53   0.05 
                                                                                
TOT- 90  13.3  21.7  34.0   8.4  25.6  <--cm   -  kg/ha-->  151.4   62.4  51964 
SOIL ALBEDO    : 0.09      EVAPORATION LIMIT : 6.00         MIN. FACTOR  : 1.00 
RUNOFF CURVE # :76.00      DRAINAGE RATE     : 0.60         FERT. FACTOR : 1.00 
                                                                                
 Maize      CULTIVAR :CI0001-P30F35             ECOTYPE :IB0001                 
 P1     : 212.00  P2     : 0.3000  P5     : 925.00                              
 G2     : 954.00  G3     :  7.000  PHINT  : 50.000                              


*SIMULATED CROP AND SOIL STATUS AT MAIN DEVELOPMENT STAGES

 RUN NO.    35     P12/14                  

        CROP GROWTH     BIOMASS         LEAF   CROP N     STRESS      STRESS                                           
   DATE  AGE STAGE        kg/ha    LAI   NUM  kg/ha  %   H2O  Nitr Phos1 Phos2  RSTG                                   
 ------  --- ----------   -----  -----  ----  ---  ---  ----  ----  ----  ----  ----                                   
 14 NOV    0 Start Sim        0   0.00   0.0    0  0.0  0.00  0.00  0.00  0.00     7
 14 DEC    0 Sowing           0   0.00   0.0    0  0.0  0.00  0.00  0.00  0.00     8
 15 DEC    1 Germinate        0   0.00   0.0    0  0.0  0.00  0.00  0.00  0.00     9
 20 DEC    6 Emergence       25   0.00   2.0    1  4.4  0.00  0.01  0.00  0.00     1
  1 JAN   18 End Juveni      71   0.16   6.7    2  3.3  0.00  0.00  0.00  0.00     2
  5 JAN   22 Floral Ini     156   0.32   8.2    6  3.7  0.00  0.00  0.00  0.00     3
  8 FEB   56 75% Silkin    2972   1.45  17.3   67  2.2  0.38  0.00  0.00  0.00     4
 17 FEB   65 Beg Gr Fil    3108   1.09  17.3   67  2.2  0.73  0.00  0.00  0.00     5
 30 MAR  106 End Gr Fil    4350   0.37  17.3   67  1.5  0.54  0.00  0.00  0.00     6
  1 APR  108 Maturity      4350   0.37  17.3   67  1.5  0.00  0.00  0.00  0.00    10
  1 APR  108 Harvest       4350   0.37  17.3   67  1.5  0.00  0.00  0.00  0.00    10


*MAIN GROWTH AND DEVELOPMENT VARIABLES

@     VARIABLE                                         SIMULATED     MEASURED
      --------                                         ---------     --------
      Anthesis day (dap)                                      56          -99
      Physiological maturity day (dap)                       108          -99
      Yield at harvest maturity (kg [dm]/ha)                1328          -99
      Number at maturity (no/m2)                             658          -99
      Unit wt at maturity (g [dm]/unit)                   0.2019          -99
      Number at maturity (no/unit)                         114.2          -99
      Tops weight at maturity (kg [dm]/ha)                  4350          -99
      By-product produced (stalk) at maturity (kg[dm]/ha    3057          -99
      Leaf area index, maximum                              1.87          -99
      Harvest index at maturity                            0.305          -99
      Grain N at maturity (kg/ha)                             24          -99
      Tops N at maturity (kg/ha)                              67          -99
      Stem N at maturity (kg/ha)                              41          -99
      Grain N at maturity (%)                                1.8          -99
      Tops weight at anthesis (kg [dm]/ha)                  2953          -99
      Tops N at anthesis (kg/ha)                              67          -99
      Leaf number per stem at maturity                     17.33          -99
      Emergence day (dap)                                      6          -99


*ENVIRONMENTAL AND STRESS FACTORS

 |-----Development Phase------|--------------------------------------Environment--------------------------------------|-----------------Stress-----------------|
                              |---------------Average--------------|-----Cumulative-----|--------Count of days--------|          (0=Min, 1=Max Stress)         |
                         Time  Temp  Temp  Temp Solar Photop                Evapo    Pot TMIN TMIN TMAX TMAX TMAX RAIN|----Water----|---Nitrogen--|-Phosphorus-|
                         Span   Max   Min  Mean   Rad  [day]    CO2   Rain  Trans     ET   <    <    >    >    >    >   Photo         Photo         Photo
                         days    邂    邂    邂 MJ/m2     hr    ppm     mm     mm     mm  0邂  2邂 30邂 32邂 34邂  0mm  synth Growth  synth Growth  synth Growth
----------------------------------------------------------------------------------------------------------------------------------------------------------------
 Emergence-End Juvenile    12  29.6  19.2  24.4  14.6   0.00  374.3    0.0   13.1   48.0    0    0    4    2    0    0  0.000  0.000  0.002  0.005  0.000  0.000
 End Juvenil-Floral Init    4  32.5  18.9  25.7  16.4   0.00  374.3    0.0    4.0   18.1    0    0    4    2    0    0  0.000  0.000  0.001  0.002  0.000  0.000
 Floral Init-End Lf Grow   34  31.3  18.6  24.9  16.1   0.00  374.4   13.6   70.0  137.7    0    0   26   13    1    2  0.246  0.354  0.000  0.000  0.000  0.000
 End Lf Grth-Beg Grn Fil    9  32.3  19.6  25.9  10.6   0.00  374.6   13.7   12.5   24.5    0    0    9    4    1    4  0.621  0.730  0.000  0.000  0.000  0.000
 Grain Filling Phase       41  31.7  19.1  25.4  15.7   6.58  374.8   85.0   61.7  172.5    0    0   32   21    2   12  0.536  0.561  0.000  0.000  0.000  0.000


 Planting to Harvest      108  31.5  19.0  25.2  15.1   2.77  374.6  159.8  184.5  429.5    0    0   82   44    6   23  0.333  0.385  0.000  0.001  0.000  0.000
----------------------------------------------------------------------------------------------------------------------------------------------------------------


*Resource Productivity
 Growing season length: 108 days 

 Precipitation during growing season       159.8 mm[rain]
   Dry Matter Productivity                  2.72 kg[DM]/m3[rain]          =   27.2 kg[DM]/ha per mm[rain]
   Yield Productivity                       0.83 kg[grain yield]/m3[rain] =    8.3 kg[yield]/ha per mm[rain]

 Evapotranspiration during growing season  184.5 mm[ET]
   Dry Matter Productivity                  2.36 kg[DM]/m3[ET]            =   23.6 kg[DM]/ha per mm[ET]
   Yield Productivity                       0.72 kg[grain yield]/m3[ET]   =    7.2 kg[yield]/ha per mm[ET]

 Transpiration during growing season        84.9 mm[EP]
   Dry Matter Productivity                  5.12 kg[DM]/m3[EP]            =   51.2 kg[DM]/ha per mm[EP]
   Yield Productivity                       1.56 kg[grain yield]/m3[EP]   =   15.6 kg[yield]/ha per mm[EP]

 N applied during growing season            161. kg[N applied]/ha
   Dry Matter Productivity                  27.0 kg[DM]/kg[N applied]
   Yield Productivity                        8.2 kg[yield]/kg[N applied]

 N uptake during growing season               74 kg[N uptake]/ha
   Dry Matter Productivity                  58.8 kg[DM]/kg[N uptake]
   Yield Productivity                       17.9 kg[yield]/kg[N uptake]

--------------------------------------------------------------------------------------------------------------

                     Maize YIELD :     1328 kg/ha    [Dry weight] 

**************************************************************************************************************

*DSSAT Cropping System Model Ver. 4.6.1.000 -release      OCT 02, 2017; 13:53:25
                                                                                
*RUN  36        : P12/19                    MZCER046 ANBU2002   36              
 MODEL          : MZCER046 - Maize                                              
 EXPERIMENT     : ANBU2002 MZ  Analisis a침os de bajo rendimiento Buga          
 DATA PATH      : C:\DSSAT46\maize\                                             
 TREATMENT 36   : P12/19                    MZCER046                            
                                                                                
                                                                                
 CROP           : Maize            CULTIVAR : P30F35           ECOTYPE :IB0001  
 STARTING DATE  : NOV 19 2002                                                   
 PLANTING DATE  : DEC 19 2002        PLANTS/m2 :  6.2     ROW SPACING :  80.cm  
 WEATHER        : CUNI   2002                                                   
 SOIL           : CCBUGA2017     TEXTURE : CL    -   Suelo Buga MADR Fase I     
 SOIL INITIAL C : DEPTH: 90cm EXTR. H2O: 83.9mm  NO3:151.4kg/ha  NH4: 62.4kg/ha 
 WATER BALANCE  : RAINFED                                                       
 IRRIGATION     : NOT IRRIGATED                                                 
 NITROGEN BAL.  : SOIL-N & N-UPTAKE SIMULATION; NO N-FIXATION                   
 N-FERTILIZER   :      161 kg/ha IN     5 APPLICATIONS                          
 RESIDUE/MANURE : INITIAL :     0 kg/ha ;       0 kg/ha IN     0 APPLICATIONS   
 ENVIRONM. OPT. : DAYL=    0.00  SRAD=    0.00  TMAX=    0.00  TMIN=    0.00    
                  RAIN=    0.00  CO2 =    0.00  DEW =    0.00  WIND=    0.00    
 SIMULATION OPT : WATER   :Y  NITROGEN:Y  N-FIX:N  PHOSPH :N  PESTS  :N         
                  PHOTO   :C  ET      :R  INFIL:S  HYDROL :R  SOM    :G         
                  CO2 374ppm  NSWIT   :1  EVAP :S  SOIL   :2  STEMP  :D         
 MANAGEMENT OPT : PLANTING:R  IRRIG   :N  FERT :D  RESIDUE:R  HARVEST:M         
                  WEATHER :M  TILLAGE :N                                        
                                                                                
*SUMMARY OF SOIL AND GENETIC INPUT PARAMETERS                                   
                                                                                
   SOIL LOWER UPPER   SAT  EXTR  INIT   ROOT   BULK     pH    NO3    NH4    ORG 
  DEPTH LIMIT LIMIT    SW    SW    SW   DIST   DENS                          C  
   cm   cm3/cm3    cm3/cm3    cm3/cm3         g/cm3         ugN/g  ugN/g     %  
------------------------------------------------------------------------------- 
  0-  5 0.215 0.331 0.341 0.116 0.319   1.00   1.68   6.70  11.90   4.21   0.75 
  5- 15 0.215 0.331 0.341 0.116 0.319   1.00   1.68   6.70  11.90   4.21   0.75 
 15- 25 0.215 0.331 0.341 0.116 0.319   1.00   1.68   6.70  11.90   4.21   0.75 
 25- 35 0.181 0.291 0.364 0.110 0.331   0.50   1.61   7.20  12.15   4.32   0.53 
 35- 45 0.181 0.291 0.364 0.110 0.344   0.50   1.61   7.20  12.40   4.44   0.53 
 45- 67 0.096 0.169 0.404 0.073 0.290   0.27   1.51   7.00  10.67   4.47   0.05 
 67- 90 0.096 0.169 0.404 0.073 0.195   0.27   1.51   7.00   7.63   4.53   0.05 
                                                                                
TOT- 90  13.3  21.7  34.0   8.4  25.6  <--cm   -  kg/ha-->  151.4   62.4  51964 
SOIL ALBEDO    : 0.09      EVAPORATION LIMIT : 6.00         MIN. FACTOR  : 1.00 
RUNOFF CURVE # :76.00      DRAINAGE RATE     : 0.60         FERT. FACTOR : 1.00 
                                                                                
 Maize      CULTIVAR :CI0001-P30F35             ECOTYPE :IB0001                 
 P1     : 212.00  P2     : 0.3000  P5     : 925.00                              
 G2     : 954.00  G3     :  7.000  PHINT  : 50.000                              


*SIMULATED CROP AND SOIL STATUS AT MAIN DEVELOPMENT STAGES

 RUN NO.    36     P12/19                  

        CROP GROWTH     BIOMASS         LEAF   CROP N     STRESS      STRESS                                           
   DATE  AGE STAGE        kg/ha    LAI   NUM  kg/ha  %   H2O  Nitr Phos1 Phos2  RSTG                                   
 ------  --- ----------   -----  -----  ----  ---  ---  ----  ----  ----  ----  ----                                   
 19 NOV    0 Start Sim        0   0.00   0.0    0  0.0  0.00  0.00  0.00  0.00     7
 19 DEC    0 Sowing           0   0.00   0.0    0  0.0  0.00  0.00  0.00  0.00     8
 20 DEC    1 Germinate        0   0.00   0.0    0  0.0  0.00  0.00  0.00  0.00     9
 25 DEC    6 Emergence       25   0.00   2.0    1  4.4  0.00  0.01  0.00  0.00     1
  6 JAN   18 End Juveni      80   0.17   6.9    3  3.4  0.00  0.00  0.00  0.00     2
 10 JAN   22 Floral Ini     170   0.34   8.3    6  3.7  0.00  0.00  0.00  0.00     3
 12 FEB   55 75% Silkin    2893   1.47  17.6   65  2.3  0.37  0.00  0.00  0.00     4
 22 FEB   65 Beg Gr Fil    3035   1.06  17.6   65  2.2  0.76  0.00  0.00  0.00     5
  3 APR  105 End Gr Fil    4503   0.44  17.6   65  1.5  0.45  0.00  0.00  0.00     6
  6 APR  108 Maturity      4503   0.44  17.6   65  1.5  0.00  0.00  0.00  0.00    10
  6 APR  108 Harvest       4503   0.44  17.6   65  1.5  0.00  0.00  0.00  0.00    10


*MAIN GROWTH AND DEVELOPMENT VARIABLES

@     VARIABLE                                         SIMULATED     MEASURED
      --------                                         ---------     --------
      Anthesis day (dap)                                      55          -99
      Physiological maturity day (dap)                       108          -99
      Yield at harvest maturity (kg [dm]/ha)                1381          -99
      Number at maturity (no/m2)                             657          -99
      Unit wt at maturity (g [dm]/unit)                   0.2101          -99
      Number at maturity (no/unit)                         114.2          -99
      Tops weight at maturity (kg [dm]/ha)                  4503          -99
      By-product produced (stalk) at maturity (kg[dm]/ha    3158          -99
      Leaf area index, maximum                              1.85          -99
      Harvest index at maturity                            0.307          -99
      Grain N at maturity (kg/ha)                             25          -99
      Tops N at maturity (kg/ha)                              65          -99
      Stem N at maturity (kg/ha)                              39          -99
      Grain N at maturity (%)                                1.8          -99
      Tops weight at anthesis (kg [dm]/ha)                  2875          -99
      Tops N at anthesis (kg/ha)                              65          -99
      Leaf number per stem at maturity                     17.57          -99
      Emergence day (dap)                                      6          -99


*ENVIRONMENTAL AND STRESS FACTORS

 |-----Development Phase------|--------------------------------------Environment--------------------------------------|-----------------Stress-----------------|
                              |---------------Average--------------|-----Cumulative-----|--------Count of days--------|          (0=Min, 1=Max Stress)         |
                         Time  Temp  Temp  Temp Solar Photop                Evapo    Pot TMIN TMIN TMAX TMAX TMAX RAIN|----Water----|---Nitrogen--|-Phosphorus-|
                         Span   Max   Min  Mean   Rad  [day]    CO2   Rain  Trans     ET   <    <    >    >    >    >   Photo         Photo         Photo
                         days    邂    邂    邂 MJ/m2     hr    ppm     mm     mm     mm  0邂  2邂 30邂 32邂 34邂  0mm  synth Growth  synth Growth  synth Growth
----------------------------------------------------------------------------------------------------------------------------------------------------------------
 Emergence-End Juvenile    12  31.0  19.1  25.0  16.0   0.00  374.3    0.0    9.0   52.9    0    0    8    4    0    0  0.000  0.000  0.002  0.006  0.000  0.000
 End Juvenil-Floral Init    4  31.0  17.7  24.4  16.7   0.00  374.3    0.0    3.7   17.9    0    0    3    1    0    0  0.000  0.000  0.001  0.002  0.000  0.000
 Floral Init-End Lf Grow   33  31.5  18.8  25.1  15.4   0.00  374.5   18.1   68.7  128.3    0    0   26   15    2    4  0.238  0.347  0.000  0.000  0.000  0.000
 End Lf Grth-Beg Grn Fil   10  32.3  19.8  26.0  10.3   0.00  374.7   10.2   14.7   26.4    0    0   10    4    1    3  0.629  0.749  0.000  0.000  0.000  0.000
 Grain Filling Phase       40  31.9  19.0  25.5  16.7   8.27  374.8   90.0   67.0  179.2    0    0   31   22    4   12  0.450  0.467  0.000  0.000  0.000  0.000


 Planting to Harvest      108  31.6  19.0  25.3  15.5   3.52  374.6  118.3  180.8  440.9    0    0   82   49    7   19  0.298  0.349  0.000  0.001  0.000  0.000
----------------------------------------------------------------------------------------------------------------------------------------------------------------


*Resource Productivity
 Growing season length: 108 days 

 Precipitation during growing season       118.3 mm[rain]
   Dry Matter Productivity                  3.81 kg[DM]/m3[rain]          =   38.1 kg[DM]/ha per mm[rain]
   Yield Productivity                       1.17 kg[grain yield]/m3[rain] =   11.7 kg[yield]/ha per mm[rain]

 Evapotranspiration during growing season  180.8 mm[ET]
   Dry Matter Productivity                  2.49 kg[DM]/m3[ET]            =   24.9 kg[DM]/ha per mm[ET]
   Yield Productivity                       0.76 kg[grain yield]/m3[ET]   =    7.6 kg[yield]/ha per mm[ET]

 Transpiration during growing season        91.9 mm[EP]
   Dry Matter Productivity                  4.90 kg[DM]/m3[EP]            =   49.0 kg[DM]/ha per mm[EP]
   Yield Productivity                       1.50 kg[grain yield]/m3[EP]   =   15.0 kg[yield]/ha per mm[EP]

 N applied during growing season            161. kg[N applied]/ha
   Dry Matter Productivity                  28.0 kg[DM]/kg[N applied]
   Yield Productivity                        8.6 kg[yield]/kg[N applied]

 N uptake during growing season               72 kg[N uptake]/ha
   Dry Matter Productivity                  62.5 kg[DM]/kg[N uptake]
   Yield Productivity                       19.2 kg[yield]/kg[N uptake]

--------------------------------------------------------------------------------------------------------------

                     Maize YIELD :     1381 kg/ha    [Dry weight] 

**************************************************************************************************************
