*SIMULATION OVERVIEW FILE

*DSSAT Cropping System Model Ver. 4.6.1.000 -release      OCT 24, 2017; 09:08:28
                                                                                
*RUN   1        : P04/02                    MZCER046 ANBU1982    1              
 MODEL          : MZCER046 - Maize                                              
 EXPERIMENT     : ANBU1982 MZ  Analisis a침os de bajo rendimiento Buga          
 DATA PATH      : C:\DSSAT46\maize\                                             
 TREATMENT  1   : P04/02                    MZCER046                            
                                                                                
                                                                                
 CROP           : Maize            CULTIVAR : P30F35           ECOTYPE :IB0001  
 STARTING DATE  : MAR  3 1982                                                   
 PLANTING DATE  : APR  2 1982        PLANTS/m2 :  6.2     ROW SPACING :  80.cm  
 WEATHER        : CUNI   1982                                                   
 SOIL           : CCBUGA2017     TEXTURE : CL    -   Suelo Buga MADR Fase I     
 SOIL INITIAL C : DEPTH: 90cm EXTR. H2O: 83.9mm  NO3:  0.0kg/ha  NH4:  0.0kg/ha 
 WATER BALANCE  : RAINFED                                                       
 IRRIGATION     : NOT IRRIGATED                                                 
 NITROGEN BAL.  : SOIL-N & N-UPTAKE SIMULATION; NO N-FIXATION                   
 N-FERTILIZER   :      161 kg/ha IN     5 APPLICATIONS                          
 RESIDUE/MANURE : INITIAL :     0 kg/ha ;       0 kg/ha IN     0 APPLICATIONS   
 ENVIRONM. OPT. : DAYL=    0.00  SRAD=    0.00  TMAX=    0.00  TMIN=    0.00    
                  RAIN=    0.00  CO2 =    0.00  DEW =    0.00  WIND=    0.00    
 SIMULATION OPT : WATER   :Y  NITROGEN:Y  N-FIX:N  PHOSPH :N  PESTS  :N         
                  PHOTO   :C  ET      :R  INFIL:S  HYDROL :R  SOM    :G         
                  CO2 341ppm  NSWIT   :1  EVAP :S  SOIL   :2  STEMP  :D         
 MANAGEMENT OPT : PLANTING:R  IRRIG   :N  FERT :D  RESIDUE:R  HARVEST:M         
                  WEATHER :M  TILLAGE :N                                        
                                                                                
*SUMMARY OF SOIL AND GENETIC INPUT PARAMETERS                                   
                                                                                
   SOIL LOWER UPPER   SAT  EXTR  INIT   ROOT   BULK     pH    NO3    NH4    ORG 
  DEPTH LIMIT LIMIT    SW    SW    SW   DIST   DENS                          C  
   cm   cm3/cm3    cm3/cm3    cm3/cm3         g/cm3         ugN/g  ugN/g     %  
------------------------------------------------------------------------------- 
  0-  5 0.215 0.331 0.341 0.116 0.331   1.00   1.68   6.70   0.00   0.00   0.75 
  5- 15 0.215 0.331 0.341 0.116 0.331   1.00   1.68   6.70   0.00   0.00   0.75 
 15- 25 0.215 0.331 0.341 0.116 0.331   1.00   1.68   6.70   0.00   0.00   0.75 
 25- 35 0.181 0.291 0.364 0.110 0.291   0.50   1.61   7.20   0.00   0.00   0.53 
 35- 45 0.181 0.291 0.364 0.110 0.291   0.50   1.61   7.20   0.00   0.00   0.53 
 45- 67 0.096 0.169 0.404 0.073 0.169   0.27   1.51   7.00   0.00   0.00   0.05 
 67- 90 0.096 0.169 0.404 0.073 0.169   0.27   1.51   7.00   0.00   0.00   0.05 
                                                                                
TOT- 90  13.3  21.7  34.0   8.4  21.7  <--cm   -  kg/ha-->    0.0    0.0  51964 
SOIL ALBEDO    : 0.09      EVAPORATION LIMIT : 6.00         MIN. FACTOR  : 1.00 
RUNOFF CURVE # :76.00      DRAINAGE RATE     : 0.60         FERT. FACTOR : 1.00 
                                                                                
 Maize      CULTIVAR :CI0001-P30F35             ECOTYPE :IB0001                 
 P1     : 200.00  P2     : 0.3000  P5     : 925.00                              
 G2     : 954.00  G3     :  7.000  PHINT  : 50.000                              


*SIMULATED CROP AND SOIL STATUS AT MAIN DEVELOPMENT STAGES

 RUN NO.     1     P04/02                  

        CROP GROWTH     BIOMASS         LEAF   CROP N     STRESS      STRESS                                           
   DATE  AGE STAGE        kg/ha    LAI   NUM  kg/ha  %   H2O  Nitr Phos1 Phos2  RSTG                                   
 ------  --- ----------   -----  -----  ----  ---  ---  ----  ----  ----  ----  ----                                   
  3 MAR    0 Start Sim        0   0.00   0.0    0  0.0  0.00  0.00  0.00  0.00     7
  2 APR    0 Sowing           0   0.00   0.0    0  0.0  0.00  0.00  0.00  0.00     8
  3 APR    1 Germinate        0   0.00   0.0    0  0.0  0.00  0.00  0.00  0.00     9
  8 APR    6 Emergence       25   0.00   2.0    1  4.4  0.00  0.01  0.00  0.00     1
 20 APR   18 End Juveni      53   0.12   6.7    2  3.4  0.00  0.00  0.00  0.00     2
 26 APR   24 Floral Ini     159   0.32   8.9    6  3.6  0.00  0.00  0.00  0.00     3
  1 JUN   60 75% Silkin    4129   2.31  18.5   79  1.9  0.00  0.00  0.00  0.00     4
 11 JUN   70 Beg Gr Fil    6145   2.18  18.5   81  1.3  0.00  0.00  0.00  0.00     5
 24 JUL  113 End Gr Fil   10345   0.74  18.5  125  1.2  0.57  0.00  0.00  0.00     6
 26 JUL  115 Maturity     10345   0.74  18.5  125  1.2  0.96  0.00  0.00  0.00    10
 26 JUL  115 Harvest      10345   0.74  18.5  125  1.2  0.00  0.00  0.00  0.00    10


*MAIN GROWTH AND DEVELOPMENT VARIABLES

@     VARIABLE                                         SIMULATED     MEASURED
      --------                                         ---------     --------
      Anthesis day (dap)                                      60          -99
      Physiological maturity day (dap)                       115          -99
      Yield at harvest maturity (kg [dm]/ha)                5188          -99
      Number at maturity (no/m2)                            2620          -99
      Unit wt at maturity (g [dm]/unit)                   0.1980          -99
      Number at maturity (no/unit)                         422.5          -99
      Tops weight at maturity (kg [dm]/ha)                 10345          -99
      By-product produced (stalk) at maturity (kg[dm]/ha    5195          -99
      Leaf area index, maximum                              2.42          -99
      Harvest index at maturity                            0.501          -99
      Grain N at maturity (kg/ha)                             92          -99
      Tops N at maturity (kg/ha)                             125          -99
      Stem N at maturity (kg/ha)                              32          -99
      Grain N at maturity (%)                                1.8          -99
      Tops weight at anthesis (kg [dm]/ha)                  3885          -99
      Tops N at anthesis (kg/ha)                              77          -99
      Leaf number per stem at maturity                     18.53          -99
      Emergence day (dap)                                      6          -99


*ENVIRONMENTAL AND STRESS FACTORS

 |-----Development Phase------|--------------------------------------Environment--------------------------------------|-----------------Stress-----------------|
                              |---------------Average--------------|-----Cumulative-----|--------Count of days--------|          (0=Min, 1=Max Stress)         |
                         Time  Temp  Temp  Temp Solar Photop                Evapo    Pot TMIN TMIN TMAX TMAX TMAX RAIN|----Water----|---Nitrogen--|-Phosphorus-|
                         Span   Max   Min  Mean   Rad  [day]    CO2   Rain  Trans     ET   <    <    >    >    >    >   Photo         Photo         Photo
                         days    邂    邂    邂 MJ/m2     hr    ppm     mm     mm     mm  0邂  2邂 30邂 32邂 34邂  0mm  synth Growth  synth Growth  synth Growth
----------------------------------------------------------------------------------------------------------------------------------------------------------------
 Emergence-End Juvenile    12  29.8  19.3  24.6  14.8  21.85  340.8   45.5   36.7   49.4    0    0    7    0    0    7  0.000  0.000  0.002  0.005  0.000  0.000
 End Juvenil-Floral Init    6  30.2  20.1  25.1  14.2  24.00  340.9    5.1   10.5   23.5    0    0    4    1    0    4  0.000  0.000  0.001  0.003  0.000  0.000
 Floral Init-End Lf Grow   36  29.5  19.6  24.6  13.9  24.00  340.9  232.0  118.3  125.6    0    0   12    0    0   24  0.000  0.000  0.000  0.000  0.000  0.000
 End Lf Grth-Beg Grn Fil   10  30.0  19.5  24.7  16.1  24.00  341.0   15.4   38.9   38.9    0    0    5    0    0    4  0.000  0.000  0.000  0.000  0.000  0.000
 Grain Filling Phase       43  31.4  18.4  24.9  17.6  24.00  341.1   54.4   97.5  189.2    0    0   34   11    1    9  0.482  0.552  0.000  0.000  0.000  0.000


 Planting to Harvest      115  30.3  19.1  24.7  15.7  23.40  341.0  386.7  323.5  459.0    0    0   65   13    1   53  0.197  0.223  0.000  0.001  0.000  0.000
----------------------------------------------------------------------------------------------------------------------------------------------------------------


*Resource Productivity
 Growing season length: 115 days 

 Precipitation during growing season       386.7 mm[rain]
   Dry Matter Productivity                  2.68 kg[DM]/m3[rain]          =   26.8 kg[DM]/ha per mm[rain]
   Yield Productivity                       1.34 kg[grain yield]/m3[rain] =   13.4 kg[yield]/ha per mm[rain]

 Evapotranspiration during growing season  323.5 mm[ET]
   Dry Matter Productivity                  3.20 kg[DM]/m3[ET]            =   32.0 kg[DM]/ha per mm[ET]
   Yield Productivity                       1.60 kg[grain yield]/m3[ET]   =   16.0 kg[yield]/ha per mm[ET]

 Transpiration during growing season       170.4 mm[EP]
   Dry Matter Productivity                  6.07 kg[DM]/m3[EP]            =   60.7 kg[DM]/ha per mm[EP]
   Yield Productivity                       3.05 kg[grain yield]/m3[EP]   =   30.5 kg[yield]/ha per mm[EP]

 N applied during growing season            161. kg[N applied]/ha
   Dry Matter Productivity                  64.3 kg[DM]/kg[N applied]
   Yield Productivity                       32.2 kg[yield]/kg[N applied]

 N uptake during growing season              138 kg[N uptake]/ha
   Dry Matter Productivity                  75.0 kg[DM]/kg[N uptake]
   Yield Productivity                       37.6 kg[yield]/kg[N uptake]

--------------------------------------------------------------------------------------------------------------

                     Maize YIELD :     5188 kg/ha    [Dry weight] 

**************************************************************************************************************

*DSSAT Cropping System Model Ver. 4.6.1.000 -release      OCT 24, 2017; 09:08:29
                                                                                
*RUN   2        : P04/07                    MZCER046 ANBU1982    2              
 MODEL          : MZCER046 - Maize                                              
 EXPERIMENT     : ANBU1982 MZ  Analisis a침os de bajo rendimiento Buga          
 DATA PATH      : C:\DSSAT46\maize\                                             
 TREATMENT  2   : P04/07                    MZCER046                            
                                                                                
                                                                                
 CROP           : Maize            CULTIVAR : P30F35           ECOTYPE :IB0001  
 STARTING DATE  : MAR  8 1982                                                   
 PLANTING DATE  : APR  7 1982        PLANTS/m2 :  6.2     ROW SPACING :  80.cm  
 WEATHER        : CUNI   1982                                                   
 SOIL           : CCBUGA2017     TEXTURE : CL    -   Suelo Buga MADR Fase I     
 SOIL INITIAL C : DEPTH: 90cm EXTR. H2O: 83.9mm  NO3:  0.0kg/ha  NH4:  0.0kg/ha 
 WATER BALANCE  : RAINFED                                                       
 IRRIGATION     : NOT IRRIGATED                                                 
 NITROGEN BAL.  : SOIL-N & N-UPTAKE SIMULATION; NO N-FIXATION                   
 N-FERTILIZER   :      161 kg/ha IN     5 APPLICATIONS                          
 RESIDUE/MANURE : INITIAL :     0 kg/ha ;       0 kg/ha IN     0 APPLICATIONS   
 ENVIRONM. OPT. : DAYL=    0.00  SRAD=    0.00  TMAX=    0.00  TMIN=    0.00    
                  RAIN=    0.00  CO2 =    0.00  DEW =    0.00  WIND=    0.00    
 SIMULATION OPT : WATER   :Y  NITROGEN:Y  N-FIX:N  PHOSPH :N  PESTS  :N         
                  PHOTO   :C  ET      :R  INFIL:S  HYDROL :R  SOM    :G         
                  CO2 341ppm  NSWIT   :1  EVAP :S  SOIL   :2  STEMP  :D         
 MANAGEMENT OPT : PLANTING:R  IRRIG   :N  FERT :D  RESIDUE:R  HARVEST:M         
                  WEATHER :M  TILLAGE :N                                        
                                                                                
*SUMMARY OF SOIL AND GENETIC INPUT PARAMETERS                                   
                                                                                
   SOIL LOWER UPPER   SAT  EXTR  INIT   ROOT   BULK     pH    NO3    NH4    ORG 
  DEPTH LIMIT LIMIT    SW    SW    SW   DIST   DENS                          C  
   cm   cm3/cm3    cm3/cm3    cm3/cm3         g/cm3         ugN/g  ugN/g     %  
------------------------------------------------------------------------------- 
  0-  5 0.215 0.331 0.341 0.116 0.331   1.00   1.68   6.70   0.00   0.00   0.75 
  5- 15 0.215 0.331 0.341 0.116 0.331   1.00   1.68   6.70   0.00   0.00   0.75 
 15- 25 0.215 0.331 0.341 0.116 0.331   1.00   1.68   6.70   0.00   0.00   0.75 
 25- 35 0.181 0.291 0.364 0.110 0.291   0.50   1.61   7.20   0.00   0.00   0.53 
 35- 45 0.181 0.291 0.364 0.110 0.291   0.50   1.61   7.20   0.00   0.00   0.53 
 45- 67 0.096 0.169 0.404 0.073 0.169   0.27   1.51   7.00   0.00   0.00   0.05 
 67- 90 0.096 0.169 0.404 0.073 0.169   0.27   1.51   7.00   0.00   0.00   0.05 
                                                                                
TOT- 90  13.3  21.7  34.0   8.4  21.7  <--cm   -  kg/ha-->    0.0    0.0  51964 
SOIL ALBEDO    : 0.09      EVAPORATION LIMIT : 6.00         MIN. FACTOR  : 1.00 
RUNOFF CURVE # :76.00      DRAINAGE RATE     : 0.60         FERT. FACTOR : 1.00 
                                                                                
 Maize      CULTIVAR :CI0001-P30F35             ECOTYPE :IB0001                 
 P1     : 200.00  P2     : 0.3000  P5     : 925.00                              
 G2     : 954.00  G3     :  7.000  PHINT  : 50.000                              


*SIMULATED CROP AND SOIL STATUS AT MAIN DEVELOPMENT STAGES

 RUN NO.     2     P04/07                  

        CROP GROWTH     BIOMASS         LEAF   CROP N     STRESS      STRESS                                           
   DATE  AGE STAGE        kg/ha    LAI   NUM  kg/ha  %   H2O  Nitr Phos1 Phos2  RSTG                                   
 ------  --- ----------   -----  -----  ----  ---  ---  ----  ----  ----  ----  ----                                   
  8 MAR    0 Start Sim        0   0.00   0.0    0  0.0  0.00  0.00  0.00  0.00     7
  7 APR    0 Sowing           0   0.00   0.0    0  0.0  0.00  0.00  0.00  0.00     8
  8 APR    1 Germinate        0   0.00   0.0    0  0.0  0.00  0.00  0.00  0.00     9
 13 APR    6 Emergence       25   0.00   2.0    1  4.4  0.00  0.01  0.00  0.00     1
 24 APR   17 End Juveni      46   0.10   6.4    2  3.4  0.00  0.00  0.00  0.00     2
  1 MAY   24 Floral Ini     166   0.33   8.8    6  3.6  0.00  0.00  0.00  0.00     3
  6 JUN   60 75% Silkin    4399   2.35  18.5   85  1.9  0.00  0.00  0.00  0.00     4
 16 JUN   70 Beg Gr Fil    6636   2.22  18.5   86  1.3  0.00  0.00  0.00  0.00     5
 28 JUL  112 End Gr Fil   10098   0.63  18.5  117  1.2  0.68  0.00  0.00  0.00     6
 31 JUL  115 Maturity     10098   0.63  18.5  117  1.2  0.94  0.00  0.00  0.00    10
 31 JUL  115 Harvest      10098   0.63  18.5  117  1.2  0.00  0.00  0.00  0.00    10


*MAIN GROWTH AND DEVELOPMENT VARIABLES

@     VARIABLE                                         SIMULATED     MEASURED
      --------                                         ---------     --------
      Anthesis day (dap)                                      60          -99
      Physiological maturity day (dap)                       115          -99
      Yield at harvest maturity (kg [dm]/ha)                4457          -99
      Number at maturity (no/m2)                            2757          -99
      Unit wt at maturity (g [dm]/unit)                   0.1617          -99
      Number at maturity (no/unit)                         444.7          -99
      Tops weight at maturity (kg [dm]/ha)                 10098          -99
      By-product produced (stalk) at maturity (kg[dm]/ha    5680          -99
      Leaf area index, maximum                              2.47          -99
      Harvest index at maturity                            0.441          -99
      Grain N at maturity (kg/ha)                             80          -99
      Tops N at maturity (kg/ha)                             117          -99
      Stem N at maturity (kg/ha)                              37          -99
      Grain N at maturity (%)                                1.8          -99
      Tops weight at anthesis (kg [dm]/ha)                  4235          -99
      Tops N at anthesis (kg/ha)                              84          -99
      Leaf number per stem at maturity                     18.51          -99
      Emergence day (dap)                                      6          -99


*ENVIRONMENTAL AND STRESS FACTORS

 |-----Development Phase------|--------------------------------------Environment--------------------------------------|-----------------Stress-----------------|
                              |---------------Average--------------|-----Cumulative-----|--------Count of days--------|          (0=Min, 1=Max Stress)         |
                         Time  Temp  Temp  Temp Solar Photop                Evapo    Pot TMIN TMIN TMAX TMAX TMAX RAIN|----Water----|---Nitrogen--|-Phosphorus-|
                         Span   Max   Min  Mean   Rad  [day]    CO2   Rain  Trans     ET   <    <    >    >    >    >   Photo         Photo         Photo
                         days    邂    邂    邂 MJ/m2     hr    ppm     mm     mm     mm  0邂  2邂 30邂 32邂 34邂  0mm  synth Growth  synth Growth  synth Growth
----------------------------------------------------------------------------------------------------------------------------------------------------------------
 Emergence-End Juvenile    11  29.9  19.7  24.8  14.7  23.71  340.9   18.5   24.4   45.2    0    0    7    0    0    7  0.000  0.000  0.002  0.005  0.000  0.000
 End Juvenil-Floral Init    7  29.9  19.5  24.7  13.2  24.00  340.9    7.9   11.4   25.4    0    0    5    1    0    4  0.000  0.000  0.000  0.000  0.000  0.000
 Floral Init-End Lf Grow   36  29.6  19.6  24.6  14.4  24.00  340.9  231.6  126.2  130.6    0    0   11    0    0   22  0.000  0.000  0.000  0.000  0.000  0.000
 End Lf Grth-Beg Grn Fil   10  30.4  19.3  24.8  16.9  24.00  341.0   21.0   41.0   41.0    0    0    6    0    0    4  0.000  0.000  0.000  0.000  0.000  0.000
 Grain Filling Phase       42  31.4  18.3  24.8  17.8  24.00  341.1   42.5   77.0  187.3    0    0   34   12    1    8  0.583  0.662  0.000  0.000  0.000  0.000


 Planting to Harvest      115  30.4  19.1  24.8  15.9  23.72  341.0  357.6  305.3  467.3    0    0   69   14    1   51  0.237  0.266  0.000  0.001  0.000  0.000
----------------------------------------------------------------------------------------------------------------------------------------------------------------


*Resource Productivity
 Growing season length: 115 days 

 Precipitation during growing season       357.6 mm[rain]
   Dry Matter Productivity                  2.82 kg[DM]/m3[rain]          =   28.2 kg[DM]/ha per mm[rain]
   Yield Productivity                       1.25 kg[grain yield]/m3[rain] =   12.5 kg[yield]/ha per mm[rain]

 Evapotranspiration during growing season  305.3 mm[ET]
   Dry Matter Productivity                  3.31 kg[DM]/m3[ET]            =   33.1 kg[DM]/ha per mm[ET]
   Yield Productivity                       1.46 kg[grain yield]/m3[ET]   =   14.6 kg[yield]/ha per mm[ET]

 Transpiration during growing season       157.1 mm[EP]
   Dry Matter Productivity                  6.43 kg[DM]/m3[EP]            =   64.3 kg[DM]/ha per mm[EP]
   Yield Productivity                       2.84 kg[grain yield]/m3[EP]   =   28.4 kg[yield]/ha per mm[EP]

 N applied during growing season            161. kg[N applied]/ha
   Dry Matter Productivity                  62.7 kg[DM]/kg[N applied]
   Yield Productivity                       27.7 kg[yield]/kg[N applied]

 N uptake during growing season              127 kg[N uptake]/ha
   Dry Matter Productivity                  79.5 kg[DM]/kg[N uptake]
   Yield Productivity                       35.1 kg[yield]/kg[N uptake]

--------------------------------------------------------------------------------------------------------------

                     Maize YIELD :     4457 kg/ha    [Dry weight] 

**************************************************************************************************************

*DSSAT Cropping System Model Ver. 4.6.1.000 -release      OCT 24, 2017; 09:08:29
                                                                                
*RUN   3        : P04/12                    MZCER046 ANBU1982    3              
 MODEL          : MZCER046 - Maize                                              
 EXPERIMENT     : ANBU1982 MZ  Analisis a침os de bajo rendimiento Buga          
 DATA PATH      : C:\DSSAT46\maize\                                             
 TREATMENT  3   : P04/12                    MZCER046                            
                                                                                
                                                                                
 CROP           : Maize            CULTIVAR : P30F35           ECOTYPE :IB0001  
 STARTING DATE  : MAR 13 1982                                                   
 PLANTING DATE  : APR 12 1982        PLANTS/m2 :  6.2     ROW SPACING :  80.cm  
 WEATHER        : CUNI   1982                                                   
 SOIL           : CCBUGA2017     TEXTURE : CL    -   Suelo Buga MADR Fase I     
 SOIL INITIAL C : DEPTH: 90cm EXTR. H2O: 83.9mm  NO3:  0.0kg/ha  NH4:  0.0kg/ha 
 WATER BALANCE  : RAINFED                                                       
 IRRIGATION     : NOT IRRIGATED                                                 
 NITROGEN BAL.  : SOIL-N & N-UPTAKE SIMULATION; NO N-FIXATION                   
 N-FERTILIZER   :      161 kg/ha IN     5 APPLICATIONS                          
 RESIDUE/MANURE : INITIAL :     0 kg/ha ;       0 kg/ha IN     0 APPLICATIONS   
 ENVIRONM. OPT. : DAYL=    0.00  SRAD=    0.00  TMAX=    0.00  TMIN=    0.00    
                  RAIN=    0.00  CO2 =    0.00  DEW =    0.00  WIND=    0.00    
 SIMULATION OPT : WATER   :Y  NITROGEN:Y  N-FIX:N  PHOSPH :N  PESTS  :N         
                  PHOTO   :C  ET      :R  INFIL:S  HYDROL :R  SOM    :G         
                  CO2 341ppm  NSWIT   :1  EVAP :S  SOIL   :2  STEMP  :D         
 MANAGEMENT OPT : PLANTING:R  IRRIG   :N  FERT :D  RESIDUE:R  HARVEST:M         
                  WEATHER :M  TILLAGE :N                                        
                                                                                
*SUMMARY OF SOIL AND GENETIC INPUT PARAMETERS                                   
                                                                                
   SOIL LOWER UPPER   SAT  EXTR  INIT   ROOT   BULK     pH    NO3    NH4    ORG 
  DEPTH LIMIT LIMIT    SW    SW    SW   DIST   DENS                          C  
   cm   cm3/cm3    cm3/cm3    cm3/cm3         g/cm3         ugN/g  ugN/g     %  
------------------------------------------------------------------------------- 
  0-  5 0.215 0.331 0.341 0.116 0.331   1.00   1.68   6.70   0.00   0.00   0.75 
  5- 15 0.215 0.331 0.341 0.116 0.331   1.00   1.68   6.70   0.00   0.00   0.75 
 15- 25 0.215 0.331 0.341 0.116 0.331   1.00   1.68   6.70   0.00   0.00   0.75 
 25- 35 0.181 0.291 0.364 0.110 0.291   0.50   1.61   7.20   0.00   0.00   0.53 
 35- 45 0.181 0.291 0.364 0.110 0.291   0.50   1.61   7.20   0.00   0.00   0.53 
 45- 67 0.096 0.169 0.404 0.073 0.169   0.27   1.51   7.00   0.00   0.00   0.05 
 67- 90 0.096 0.169 0.404 0.073 0.169   0.27   1.51   7.00   0.00   0.00   0.05 
                                                                                
TOT- 90  13.3  21.7  34.0   8.4  21.7  <--cm   -  kg/ha-->    0.0    0.0  51964 
SOIL ALBEDO    : 0.09      EVAPORATION LIMIT : 6.00         MIN. FACTOR  : 1.00 
RUNOFF CURVE # :76.00      DRAINAGE RATE     : 0.60         FERT. FACTOR : 1.00 
                                                                                
 Maize      CULTIVAR :CI0001-P30F35             ECOTYPE :IB0001                 
 P1     : 200.00  P2     : 0.3000  P5     : 925.00                              
 G2     : 954.00  G3     :  7.000  PHINT  : 50.000                              


*SIMULATED CROP AND SOIL STATUS AT MAIN DEVELOPMENT STAGES

 RUN NO.     3     P04/12                  

        CROP GROWTH     BIOMASS         LEAF   CROP N     STRESS      STRESS                                           
   DATE  AGE STAGE        kg/ha    LAI   NUM  kg/ha  %   H2O  Nitr Phos1 Phos2  RSTG                                   
 ------  --- ----------   -----  -----  ----  ---  ---  ----  ----  ----  ----  ----                                   
 13 MAR    0 Start Sim        0   0.00   0.0    0  0.0  0.00  0.00  0.00  0.00     7
 12 APR    0 Sowing           0   0.00   0.0    0  0.0  0.00  0.00  0.00  0.00     8
 13 APR    1 Germinate        0   0.00   0.0    0  0.0  0.00  0.00  0.00  0.00     9
 18 APR    6 Emergence       25   0.00   2.0    1  4.4  0.00  0.01  0.00  0.00     1
 29 APR   17 End Juveni      51   0.11   6.4    2  3.5  0.00  0.00  0.00  0.00     2
  6 MAY   24 Floral Ini     144   0.29   8.9    5  3.6  0.00  0.00  0.00  0.00     3
 12 JUN   61 75% Silkin    4839   2.39  18.9   92  1.9  0.00  0.00  0.00  0.00     4
 22 JUN   71 Beg Gr Fil    6460   2.15  18.9   92  1.4  0.31  0.00  0.00  0.00     5
  2 AUG  112 End Gr Fil    8335   0.46  18.9   97  1.2  0.81  0.00  0.00  0.00     6
  5 AUG  115 Maturity      8335   0.46  18.9   97  1.2  0.96  0.00  0.00  0.00    10
  5 AUG  115 Harvest       8335   0.46  18.9   97  1.2  0.00  0.00  0.00  0.00    10


*MAIN GROWTH AND DEVELOPMENT VARIABLES

@     VARIABLE                                         SIMULATED     MEASURED
      --------                                         ---------     --------
      Anthesis day (dap)                                      61          -99
      Physiological maturity day (dap)                       115          -99
      Yield at harvest maturity (kg [dm]/ha)                3020          -99
      Number at maturity (no/m2)                            2223          -99
      Unit wt at maturity (g [dm]/unit)                   0.1359          -99
      Number at maturity (no/unit)                         358.5          -99
      Tops weight at maturity (kg [dm]/ha)                  8335          -99
      By-product produced (stalk) at maturity (kg[dm]/ha    5354          -99
      Leaf area index, maximum                              2.51          -99
      Harvest index at maturity                            0.362          -99
      Grain N at maturity (kg/ha)                             56          -99
      Tops N at maturity (kg/ha)                              97          -99
      Stem N at maturity (kg/ha)                              41          -99
      Grain N at maturity (%)                                1.8          -99
      Tops weight at anthesis (kg [dm]/ha)                  4681          -99
      Tops N at anthesis (kg/ha)                              92          -99
      Leaf number per stem at maturity                     18.87          -99
      Emergence day (dap)                                      6          -99


*ENVIRONMENTAL AND STRESS FACTORS

 |-----Development Phase------|--------------------------------------Environment--------------------------------------|-----------------Stress-----------------|
                              |---------------Average--------------|-----Cumulative-----|--------Count of days--------|          (0=Min, 1=Max Stress)         |
                         Time  Temp  Temp  Temp Solar Photop                Evapo    Pot TMIN TMIN TMAX TMAX TMAX RAIN|----Water----|---Nitrogen--|-Phosphorus-|
                         Span   Max   Min  Mean   Rad  [day]    CO2   Rain  Trans     ET   <    <    >    >    >    >   Photo         Photo         Photo
                         days    邂    邂    邂 MJ/m2     hr    ppm     mm     mm     mm  0邂  2邂 30邂 32邂 34邂  0mm  synth Growth  synth Growth  synth Growth
----------------------------------------------------------------------------------------------------------------------------------------------------------------
 Emergence-End Juvenile    11  30.0  19.8  24.9  13.7  24.00  340.9   16.3   17.5   42.1    0    0    7    1    0    8  0.000  0.000  0.002  0.005  0.000  0.000
 End Juvenil-Floral Init    7  30.1  19.7  24.9  13.4  24.00  340.9   66.7   22.8   25.9    0    0    4    0    0    5  0.000  0.000  0.000  0.000  0.000  0.000
 Floral Init-End Lf Grow   37  29.6  19.6  24.6  14.8  24.00  341.0  184.1  129.5  137.5    0    0   12    0    0   21  0.000  0.000  0.000  0.000  0.000  0.000
 End Lf Grth-Beg Grn Fil   10  30.3  18.6  24.4  15.6  24.00  341.0   13.2   32.9   37.5    0    0    5    0    0    4  0.153  0.253  0.000  0.000  0.000  0.000
 Grain Filling Phase       41  31.7  18.3  25.0  18.5  24.00  341.1   35.0   55.6  193.1    0    0   36   15    2    7  0.746  0.800  0.000  0.000  0.000  0.000


 Planting to Harvest      115  30.6  19.0  24.8  16.2  23.94  341.0  324.7  276.3  479.8    0    0   71   19    4   47  0.304  0.332  0.000  0.000  0.000  0.000
----------------------------------------------------------------------------------------------------------------------------------------------------------------


*Resource Productivity
 Growing season length: 115 days 

 Precipitation during growing season       324.7 mm[rain]
   Dry Matter Productivity                  2.57 kg[DM]/m3[rain]          =   25.7 kg[DM]/ha per mm[rain]
   Yield Productivity                       0.93 kg[grain yield]/m3[rain] =    9.3 kg[yield]/ha per mm[rain]

 Evapotranspiration during growing season  276.3 mm[ET]
   Dry Matter Productivity                  3.02 kg[DM]/m3[ET]            =   30.2 kg[DM]/ha per mm[ET]
   Yield Productivity                       1.09 kg[grain yield]/m3[ET]   =   10.9 kg[yield]/ha per mm[ET]

 Transpiration during growing season       133.6 mm[EP]
   Dry Matter Productivity                  6.24 kg[DM]/m3[EP]            =   62.4 kg[DM]/ha per mm[EP]
   Yield Productivity                       2.26 kg[grain yield]/m3[EP]   =   22.6 kg[yield]/ha per mm[EP]

 N applied during growing season            161. kg[N applied]/ha
   Dry Matter Productivity                  51.8 kg[DM]/kg[N applied]
   Yield Productivity                       18.8 kg[yield]/kg[N applied]

 N uptake during growing season              106 kg[N uptake]/ha
   Dry Matter Productivity                  78.6 kg[DM]/kg[N uptake]
   Yield Productivity                       28.5 kg[yield]/kg[N uptake]

--------------------------------------------------------------------------------------------------------------

                     Maize YIELD :     3020 kg/ha    [Dry weight] 

**************************************************************************************************************

*DSSAT Cropping System Model Ver. 4.6.1.000 -release      OCT 24, 2017; 09:08:29
                                                                                
*RUN   4        : P04/17                    MZCER046 ANBU1982    4              
 MODEL          : MZCER046 - Maize                                              
 EXPERIMENT     : ANBU1982 MZ  Analisis a침os de bajo rendimiento Buga          
 DATA PATH      : C:\DSSAT46\maize\                                             
 TREATMENT  4   : P04/17                    MZCER046                            
                                                                                
                                                                                
 CROP           : Maize            CULTIVAR : P30F35           ECOTYPE :IB0001  
 STARTING DATE  : MAR 18 1982                                                   
 PLANTING DATE  : APR 17 1982        PLANTS/m2 :  6.2     ROW SPACING :  80.cm  
 WEATHER        : CUNI   1982                                                   
 SOIL           : CCBUGA2017     TEXTURE : CL    -   Suelo Buga MADR Fase I     
 SOIL INITIAL C : DEPTH: 90cm EXTR. H2O: 83.9mm  NO3:  0.0kg/ha  NH4:  0.0kg/ha 
 WATER BALANCE  : RAINFED                                                       
 IRRIGATION     : NOT IRRIGATED                                                 
 NITROGEN BAL.  : SOIL-N & N-UPTAKE SIMULATION; NO N-FIXATION                   
 N-FERTILIZER   :      161 kg/ha IN     5 APPLICATIONS                          
 RESIDUE/MANURE : INITIAL :     0 kg/ha ;       0 kg/ha IN     0 APPLICATIONS   
 ENVIRONM. OPT. : DAYL=    0.00  SRAD=    0.00  TMAX=    0.00  TMIN=    0.00    
                  RAIN=    0.00  CO2 =    0.00  DEW =    0.00  WIND=    0.00    
 SIMULATION OPT : WATER   :Y  NITROGEN:Y  N-FIX:N  PHOSPH :N  PESTS  :N         
                  PHOTO   :C  ET      :R  INFIL:S  HYDROL :R  SOM    :G         
                  CO2 341ppm  NSWIT   :1  EVAP :S  SOIL   :2  STEMP  :D         
 MANAGEMENT OPT : PLANTING:R  IRRIG   :N  FERT :D  RESIDUE:R  HARVEST:M         
                  WEATHER :M  TILLAGE :N                                        
                                                                                
*SUMMARY OF SOIL AND GENETIC INPUT PARAMETERS                                   
                                                                                
   SOIL LOWER UPPER   SAT  EXTR  INIT   ROOT   BULK     pH    NO3    NH4    ORG 
  DEPTH LIMIT LIMIT    SW    SW    SW   DIST   DENS                          C  
   cm   cm3/cm3    cm3/cm3    cm3/cm3         g/cm3         ugN/g  ugN/g     %  
------------------------------------------------------------------------------- 
  0-  5 0.215 0.331 0.341 0.116 0.331   1.00   1.68   6.70   0.00   0.00   0.75 
  5- 15 0.215 0.331 0.341 0.116 0.331   1.00   1.68   6.70   0.00   0.00   0.75 
 15- 25 0.215 0.331 0.341 0.116 0.331   1.00   1.68   6.70   0.00   0.00   0.75 
 25- 35 0.181 0.291 0.364 0.110 0.291   0.50   1.61   7.20   0.00   0.00   0.53 
 35- 45 0.181 0.291 0.364 0.110 0.291   0.50   1.61   7.20   0.00   0.00   0.53 
 45- 67 0.096 0.169 0.404 0.073 0.169   0.27   1.51   7.00   0.00   0.00   0.05 
 67- 90 0.096 0.169 0.404 0.073 0.169   0.27   1.51   7.00   0.00   0.00   0.05 
                                                                                
TOT- 90  13.3  21.7  34.0   8.4  21.7  <--cm   -  kg/ha-->    0.0    0.0  51964 
SOIL ALBEDO    : 0.09      EVAPORATION LIMIT : 6.00         MIN. FACTOR  : 1.00 
RUNOFF CURVE # :76.00      DRAINAGE RATE     : 0.60         FERT. FACTOR : 1.00 
                                                                                
 Maize      CULTIVAR :CI0001-P30F35             ECOTYPE :IB0001                 
 P1     : 200.00  P2     : 0.3000  P5     : 925.00                              
 G2     : 954.00  G3     :  7.000  PHINT  : 50.000                              


*SIMULATED CROP AND SOIL STATUS AT MAIN DEVELOPMENT STAGES

 RUN NO.     4     P04/17                  

        CROP GROWTH     BIOMASS         LEAF   CROP N     STRESS      STRESS                                           
   DATE  AGE STAGE        kg/ha    LAI   NUM  kg/ha  %   H2O  Nitr Phos1 Phos2  RSTG                                   
 ------  --- ----------   -----  -----  ----  ---  ---  ----  ----  ----  ----  ----                                   
 18 MAR    0 Start Sim        0   0.00   0.0    0  0.0  0.00  0.00  0.00  0.00     7
 17 APR    0 Sowing           0   0.00   0.0    0  0.0  0.00  0.00  0.00  0.00     8
 18 APR    1 Germinate        0   0.00   0.0    0  0.0  0.00  0.00  0.00  0.00     9
 23 APR    6 Emergence       25   0.00   2.0    1  4.4  0.00  0.01  0.00  0.00     1
  4 MAY   17 End Juveni      44   0.09   6.5    2  3.7  0.00  0.00  0.00  0.00     2
 11 MAY   24 Floral Ini     122   0.26   8.8    4  3.6  0.00  0.00  0.00  0.00     3
 16 JUN   60 75% Silkin    4742   2.35  18.5   94  2.0  0.02  0.00  0.00  0.00     4
 27 JUN   71 Beg Gr Fil    5644   1.80  18.5   95  1.7  0.59  0.00  0.00  0.00     5
  7 AUG  112 End Gr Fil    7145   0.38  18.5   95  1.3  0.81  0.00  0.00  0.00     6
 10 AUG  115 Maturity      7145   0.38  18.5   95  1.3  0.94  0.00  0.00  0.00    10
 10 AUG  115 Harvest       7145   0.38  18.5   95  1.3  0.00  0.00  0.00  0.00    10


*MAIN GROWTH AND DEVELOPMENT VARIABLES

@     VARIABLE                                         SIMULATED     MEASURED
      --------                                         ---------     --------
      Anthesis day (dap)                                      60          -99
      Physiological maturity day (dap)                       115          -99
      Yield at harvest maturity (kg [dm]/ha)                2463          -99
      Number at maturity (no/m2)                            1476          -99
      Unit wt at maturity (g [dm]/unit)                   0.1668          -99
      Number at maturity (no/unit)                         238.1          -99
      Tops weight at maturity (kg [dm]/ha)                  7145          -99
      By-product produced (stalk) at maturity (kg[dm]/ha    4721          -99
      Leaf area index, maximum                              2.47          -99
      Harvest index at maturity                            0.345          -99
      Grain N at maturity (kg/ha)                             46          -99
      Tops N at maturity (kg/ha)                              95          -99
      Stem N at maturity (kg/ha)                              49          -99
      Grain N at maturity (%)                                1.9          -99
      Tops weight at anthesis (kg [dm]/ha)                  4598          -99
      Tops N at anthesis (kg/ha)                              92          -99
      Leaf number per stem at maturity                     18.52          -99
      Emergence day (dap)                                      6          -99


*ENVIRONMENTAL AND STRESS FACTORS

 |-----Development Phase------|--------------------------------------Environment--------------------------------------|-----------------Stress-----------------|
                              |---------------Average--------------|-----Cumulative-----|--------Count of days--------|          (0=Min, 1=Max Stress)         |
                         Time  Temp  Temp  Temp Solar Photop                Evapo    Pot TMIN TMIN TMAX TMAX TMAX RAIN|----Water----|---Nitrogen--|-Phosphorus-|
                         Span   Max   Min  Mean   Rad  [day]    CO2   Rain  Trans     ET   <    <    >    >    >    >   Photo         Photo         Photo
                         days    邂    邂    邂 MJ/m2     hr    ppm     mm     mm     mm  0邂  2邂 30邂 32邂 34邂  0mm  synth Growth  synth Growth  synth Growth
----------------------------------------------------------------------------------------------------------------------------------------------------------------
 Emergence-End Juvenile    11  30.1  19.6  24.9  13.9  24.00  340.9   68.2   23.7   42.9    0    0    7    1    0    8  0.000  0.000  0.002  0.005  0.000  0.000
 End Juvenil-Floral Init    7  29.5  20.0  24.7  11.6  24.00  340.9   19.7   20.6   22.4    0    0    2    0    0    3  0.000  0.000  0.000  0.001  0.000  0.000
 Floral Init-End Lf Grow   36  29.8  19.4  24.6  15.6  24.00  341.0  173.4  133.1  141.8    0    0   13    0    0   20  0.000  0.008  0.000  0.000  0.000  0.000
 End Lf Grth-Beg Grn Fil   11  30.3  18.6  24.4  15.3  24.00  341.1   10.7   24.9   40.7    0    0    6    0    0    3  0.425  0.556  0.000  0.000  0.000  0.000
 Grain Filling Phase       41  32.1  18.1  25.1  19.1  24.00  341.1   35.0   51.4  201.6    0    0   38   19    4    7  0.761  0.810  0.000  0.000  0.000  0.000


 Planting to Harvest      115  30.7  18.9  24.8  16.4  24.00  341.0  319.2  268.4  487.2    0    0   72   21    4   48  0.335  0.369  0.000  0.000  0.000  0.000
----------------------------------------------------------------------------------------------------------------------------------------------------------------


*Resource Productivity
 Growing season length: 115 days 

 Precipitation during growing season       319.2 mm[rain]
   Dry Matter Productivity                  2.24 kg[DM]/m3[rain]          =   22.4 kg[DM]/ha per mm[rain]
   Yield Productivity                       0.77 kg[grain yield]/m3[rain] =    7.7 kg[yield]/ha per mm[rain]

 Evapotranspiration during growing season  268.4 mm[ET]
   Dry Matter Productivity                  2.66 kg[DM]/m3[ET]            =   26.6 kg[DM]/ha per mm[ET]
   Yield Productivity                       0.92 kg[grain yield]/m3[ET]   =    9.2 kg[yield]/ha per mm[ET]

 Transpiration during growing season       120.0 mm[EP]
   Dry Matter Productivity                  5.95 kg[DM]/m3[EP]            =   59.5 kg[DM]/ha per mm[EP]
   Yield Productivity                       2.05 kg[grain yield]/m3[EP]   =   20.5 kg[yield]/ha per mm[EP]

 N applied during growing season            161. kg[N applied]/ha
   Dry Matter Productivity                  44.4 kg[DM]/kg[N applied]
   Yield Productivity                       15.3 kg[yield]/kg[N applied]

 N uptake during growing season              103 kg[N uptake]/ha
   Dry Matter Productivity                  69.4 kg[DM]/kg[N uptake]
   Yield Productivity                       23.9 kg[yield]/kg[N uptake]

--------------------------------------------------------------------------------------------------------------

                     Maize YIELD :     2463 kg/ha    [Dry weight] 

**************************************************************************************************************

*DSSAT Cropping System Model Ver. 4.6.1.000 -release      OCT 24, 2017; 09:08:29
                                                                                
*RUN   5        : P04/22                    MZCER046 ANBU1982    5              
 MODEL          : MZCER046 - Maize                                              
 EXPERIMENT     : ANBU1982 MZ  Analisis a침os de bajo rendimiento Buga          
 DATA PATH      : C:\DSSAT46\maize\                                             
 TREATMENT  5   : P04/22                    MZCER046                            
                                                                                
                                                                                
 CROP           : Maize            CULTIVAR : P30F35           ECOTYPE :IB0001  
 STARTING DATE  : MAR 23 1982                                                   
 PLANTING DATE  : APR 22 1982        PLANTS/m2 :  6.2     ROW SPACING :  80.cm  
 WEATHER        : CUNI   1982                                                   
 SOIL           : CCBUGA2017     TEXTURE : CL    -   Suelo Buga MADR Fase I     
 SOIL INITIAL C : DEPTH: 90cm EXTR. H2O: 83.9mm  NO3:  0.0kg/ha  NH4:  0.0kg/ha 
 WATER BALANCE  : RAINFED                                                       
 IRRIGATION     : NOT IRRIGATED                                                 
 NITROGEN BAL.  : SOIL-N & N-UPTAKE SIMULATION; NO N-FIXATION                   
 N-FERTILIZER   :      161 kg/ha IN     5 APPLICATIONS                          
 RESIDUE/MANURE : INITIAL :     0 kg/ha ;       0 kg/ha IN     0 APPLICATIONS   
 ENVIRONM. OPT. : DAYL=    0.00  SRAD=    0.00  TMAX=    0.00  TMIN=    0.00    
                  RAIN=    0.00  CO2 =    0.00  DEW =    0.00  WIND=    0.00    
 SIMULATION OPT : WATER   :Y  NITROGEN:Y  N-FIX:N  PHOSPH :N  PESTS  :N         
                  PHOTO   :C  ET      :R  INFIL:S  HYDROL :R  SOM    :G         
                  CO2 341ppm  NSWIT   :1  EVAP :S  SOIL   :2  STEMP  :D         
 MANAGEMENT OPT : PLANTING:R  IRRIG   :N  FERT :D  RESIDUE:R  HARVEST:M         
                  WEATHER :M  TILLAGE :N                                        
                                                                                
*SUMMARY OF SOIL AND GENETIC INPUT PARAMETERS                                   
                                                                                
   SOIL LOWER UPPER   SAT  EXTR  INIT   ROOT   BULK     pH    NO3    NH4    ORG 
  DEPTH LIMIT LIMIT    SW    SW    SW   DIST   DENS                          C  
   cm   cm3/cm3    cm3/cm3    cm3/cm3         g/cm3         ugN/g  ugN/g     %  
------------------------------------------------------------------------------- 
  0-  5 0.215 0.331 0.341 0.116 0.331   1.00   1.68   6.70   0.00   0.00   0.75 
  5- 15 0.215 0.331 0.341 0.116 0.331   1.00   1.68   6.70   0.00   0.00   0.75 
 15- 25 0.215 0.331 0.341 0.116 0.331   1.00   1.68   6.70   0.00   0.00   0.75 
 25- 35 0.181 0.291 0.364 0.110 0.291   0.50   1.61   7.20   0.00   0.00   0.53 
 35- 45 0.181 0.291 0.364 0.110 0.291   0.50   1.61   7.20   0.00   0.00   0.53 
 45- 67 0.096 0.169 0.404 0.073 0.169   0.27   1.51   7.00   0.00   0.00   0.05 
 67- 90 0.096 0.169 0.404 0.073 0.169   0.27   1.51   7.00   0.00   0.00   0.05 
                                                                                
TOT- 90  13.3  21.7  34.0   8.4  21.7  <--cm   -  kg/ha-->    0.0    0.0  51964 
SOIL ALBEDO    : 0.09      EVAPORATION LIMIT : 6.00         MIN. FACTOR  : 1.00 
RUNOFF CURVE # :76.00      DRAINAGE RATE     : 0.60         FERT. FACTOR : 1.00 
                                                                                
 Maize      CULTIVAR :CI0001-P30F35             ECOTYPE :IB0001                 
 P1     : 200.00  P2     : 0.3000  P5     : 925.00                              
 G2     : 954.00  G3     :  7.000  PHINT  : 50.000                              


*SIMULATED CROP AND SOIL STATUS AT MAIN DEVELOPMENT STAGES

 RUN NO.     5     P04/22                  

        CROP GROWTH     BIOMASS         LEAF   CROP N     STRESS      STRESS                                           
   DATE  AGE STAGE        kg/ha    LAI   NUM  kg/ha  %   H2O  Nitr Phos1 Phos2  RSTG                                   
 ------  --- ----------   -----  -----  ----  ---  ---  ----  ----  ----  ----  ----                                   
 23 MAR    0 Start Sim        0   0.00   0.0    0  0.0  0.00  0.00  0.00  0.00     7
 22 APR    0 Sowing           0   0.00   0.0    0  0.0  0.00  0.00  0.00  0.00     8
 23 APR    1 Germinate        0   0.00   0.0    0  0.0  0.00  0.00  0.00  0.00     9
 28 APR    6 Emergence       25   0.00   1.9    1  4.4  0.00  0.01  0.00  0.00     1
  9 MAY   17 End Juveni      35   0.07   6.4    1  3.5  0.00  0.00  0.00  0.00     2
 16 MAY   24 Floral Ini     125   0.26   8.8    5  3.6  0.00  0.00  0.00  0.00     3
 22 JUN   61 75% Silkin    4565   2.27  18.5   91  2.0  0.08  0.00  0.00  0.00     4
  2 JUL   71 Beg Gr Fil    4875   1.54  18.5   91  1.9  0.84  0.00  0.00  0.00     5
 12 AUG  112 End Gr Fil    5945   0.33  18.5   91  1.5  0.81  0.00  0.00  0.00     6
 14 AUG  114 Maturity      5945   0.33  18.5   91  1.5  0.93  0.00  0.00  0.00    10
 14 AUG  114 Harvest       5945   0.33  18.5   91  1.5  0.00  0.00  0.00  0.00    10


*MAIN GROWTH AND DEVELOPMENT VARIABLES

@     VARIABLE                                         SIMULATED     MEASURED
      --------                                         ---------     --------
      Anthesis day (dap)                                      61          -99
      Physiological maturity day (dap)                       114          -99
      Yield at harvest maturity (kg [dm]/ha)                1668          -99
      Number at maturity (no/m2)                             997          -99
      Unit wt at maturity (g [dm]/unit)                   0.1673          -99
      Number at maturity (no/unit)                         160.9          -99
      Tops weight at maturity (kg [dm]/ha)                  5945          -99
      By-product produced (stalk) at maturity (kg[dm]/ha    4316          -99
      Leaf area index, maximum                              2.30          -99
      Harvest index at maturity                            0.281          -99
      Grain N at maturity (kg/ha)                             31          -99
      Tops N at maturity (kg/ha)                              91          -99
      Stem N at maturity (kg/ha)                              61          -99
      Grain N at maturity (%)                                1.9          -99
      Tops weight at anthesis (kg [dm]/ha)                  4439          -99
      Tops N at anthesis (kg/ha)                              89          -99
      Leaf number per stem at maturity                     18.45          -99
      Emergence day (dap)                                      6          -99


*ENVIRONMENTAL AND STRESS FACTORS

 |-----Development Phase------|--------------------------------------Environment--------------------------------------|-----------------Stress-----------------|
                              |---------------Average--------------|-----Cumulative-----|--------Count of days--------|          (0=Min, 1=Max Stress)         |
                         Time  Temp  Temp  Temp Solar Photop                Evapo    Pot TMIN TMIN TMAX TMAX TMAX RAIN|----Water----|---Nitrogen--|-Phosphorus-|
                         Span   Max   Min  Mean   Rad  [day]    CO2   Rain  Trans     ET   <    <    >    >    >    >   Photo         Photo         Photo
                         days    邂    邂    邂 MJ/m2     hr    ppm     mm     mm     mm  0邂  2邂 30邂 32邂 34邂  0mm  synth Growth  synth Growth  synth Growth
----------------------------------------------------------------------------------------------------------------------------------------------------------------
 Emergence-End Juvenile    11  29.7  19.7  24.7  12.5  24.00  340.9   84.5   31.3   38.4    0    0    5    0    0    8  0.000  0.000  0.002  0.005  0.000  0.000
 End Juvenil-Floral Init    7  29.9  19.8  24.9  14.5  24.00  340.9   15.9   18.1   28.1    0    0    4    0    0    4  0.000  0.000  0.000  0.001  0.000  0.000
 Floral Init-End Lf Grow   37  29.7  19.2  24.5  15.4  24.00  341.0  168.2  135.5  143.2    0    0   12    0    0   19  0.041  0.068  0.000  0.000  0.000  0.000
 End Lf Grth-Beg Grn Fil   10  31.5  18.5  25.0  17.8  24.00  341.1    0.0   15.7   43.6    0    0    7    3    1    0  0.698  0.799  0.000  0.000  0.000  0.000
 Grain Filling Phase       41  32.2  18.1  25.2  19.1  24.00  341.1   38.1   50.6  203.2    0    0   39   19    5    9  0.759  0.807  0.000  0.000  0.000  0.000


 Planting to Harvest      114  30.9  18.9  24.9  16.7  24.00  341.0  311.4  260.1  493.2    0    0   74   25    7   44  0.363  0.399  0.000  0.001  0.000  0.000
----------------------------------------------------------------------------------------------------------------------------------------------------------------


*Resource Productivity
 Growing season length: 114 days 

 Precipitation during growing season       311.4 mm[rain]
   Dry Matter Productivity                  1.91 kg[DM]/m3[rain]          =   19.1 kg[DM]/ha per mm[rain]
   Yield Productivity                       0.54 kg[grain yield]/m3[rain] =    5.4 kg[yield]/ha per mm[rain]

 Evapotranspiration during growing season  260.1 mm[ET]
   Dry Matter Productivity                  2.29 kg[DM]/m3[ET]            =   22.9 kg[DM]/ha per mm[ET]
   Yield Productivity                       0.64 kg[grain yield]/m3[ET]   =    6.4 kg[yield]/ha per mm[ET]

 Transpiration during growing season       108.6 mm[EP]
   Dry Matter Productivity                  5.47 kg[DM]/m3[EP]            =   54.7 kg[DM]/ha per mm[EP]
   Yield Productivity                       1.54 kg[grain yield]/m3[EP]   =   15.4 kg[yield]/ha per mm[EP]

 N applied during growing season            161. kg[N applied]/ha
   Dry Matter Productivity                  36.9 kg[DM]/kg[N applied]
   Yield Productivity                       10.4 kg[yield]/kg[N applied]

 N uptake during growing season               99 kg[N uptake]/ha
   Dry Matter Productivity                  60.1 kg[DM]/kg[N uptake]
   Yield Productivity                       16.8 kg[yield]/kg[N uptake]

--------------------------------------------------------------------------------------------------------------

                     Maize YIELD :     1668 kg/ha    [Dry weight] 

**************************************************************************************************************

*DSSAT Cropping System Model Ver. 4.6.1.000 -release      OCT 24, 2017; 09:08:29
                                                                                
*RUN   6        : P04/27                    MZCER046 ANBU1982    6              
 MODEL          : MZCER046 - Maize                                              
 EXPERIMENT     : ANBU1982 MZ  Analisis a침os de bajo rendimiento Buga          
 DATA PATH      : C:\DSSAT46\maize\                                             
 TREATMENT  6   : P04/27                    MZCER046                            
                                                                                
                                                                                
 CROP           : Maize            CULTIVAR : P30F35           ECOTYPE :IB0001  
 STARTING DATE  : MAR 28 1982                                                   
 PLANTING DATE  : APR 27 1982        PLANTS/m2 :  6.2     ROW SPACING :  80.cm  
 WEATHER        : CUNI   1982                                                   
 SOIL           : CCBUGA2017     TEXTURE : CL    -   Suelo Buga MADR Fase I     
 SOIL INITIAL C : DEPTH: 90cm EXTR. H2O: 83.9mm  NO3:  0.0kg/ha  NH4:  0.0kg/ha 
 WATER BALANCE  : RAINFED                                                       
 IRRIGATION     : NOT IRRIGATED                                                 
 NITROGEN BAL.  : SOIL-N & N-UPTAKE SIMULATION; NO N-FIXATION                   
 N-FERTILIZER   :      161 kg/ha IN     5 APPLICATIONS                          
 RESIDUE/MANURE : INITIAL :     0 kg/ha ;       0 kg/ha IN     0 APPLICATIONS   
 ENVIRONM. OPT. : DAYL=    0.00  SRAD=    0.00  TMAX=    0.00  TMIN=    0.00    
                  RAIN=    0.00  CO2 =    0.00  DEW =    0.00  WIND=    0.00    
 SIMULATION OPT : WATER   :Y  NITROGEN:Y  N-FIX:N  PHOSPH :N  PESTS  :N         
                  PHOTO   :C  ET      :R  INFIL:S  HYDROL :R  SOM    :G         
                  CO2 341ppm  NSWIT   :1  EVAP :S  SOIL   :2  STEMP  :D         
 MANAGEMENT OPT : PLANTING:R  IRRIG   :N  FERT :D  RESIDUE:R  HARVEST:M         
                  WEATHER :M  TILLAGE :N                                        
                                                                                
*SUMMARY OF SOIL AND GENETIC INPUT PARAMETERS                                   
                                                                                
   SOIL LOWER UPPER   SAT  EXTR  INIT   ROOT   BULK     pH    NO3    NH4    ORG 
  DEPTH LIMIT LIMIT    SW    SW    SW   DIST   DENS                          C  
   cm   cm3/cm3    cm3/cm3    cm3/cm3         g/cm3         ugN/g  ugN/g     %  
------------------------------------------------------------------------------- 
  0-  5 0.215 0.331 0.341 0.116 0.331   1.00   1.68   6.70   0.00   0.00   0.75 
  5- 15 0.215 0.331 0.341 0.116 0.331   1.00   1.68   6.70   0.00   0.00   0.75 
 15- 25 0.215 0.331 0.341 0.116 0.331   1.00   1.68   6.70   0.00   0.00   0.75 
 25- 35 0.181 0.291 0.364 0.110 0.291   0.50   1.61   7.20   0.00   0.00   0.53 
 35- 45 0.181 0.291 0.364 0.110 0.291   0.50   1.61   7.20   0.00   0.00   0.53 
 45- 67 0.096 0.169 0.404 0.073 0.169   0.27   1.51   7.00   0.00   0.00   0.05 
 67- 90 0.096 0.169 0.404 0.073 0.169   0.27   1.51   7.00   0.00   0.00   0.05 
                                                                                
TOT- 90  13.3  21.7  34.0   8.4  21.7  <--cm   -  kg/ha-->    0.0    0.0  51964 
SOIL ALBEDO    : 0.09      EVAPORATION LIMIT : 6.00         MIN. FACTOR  : 1.00 
RUNOFF CURVE # :76.00      DRAINAGE RATE     : 0.60         FERT. FACTOR : 1.00 
                                                                                
 Maize      CULTIVAR :CI0001-P30F35             ECOTYPE :IB0001                 
 P1     : 200.00  P2     : 0.3000  P5     : 925.00                              
 G2     : 954.00  G3     :  7.000  PHINT  : 50.000                              


*SIMULATED CROP AND SOIL STATUS AT MAIN DEVELOPMENT STAGES

 RUN NO.     6     P04/27                  

        CROP GROWTH     BIOMASS         LEAF   CROP N     STRESS      STRESS                                           
   DATE  AGE STAGE        kg/ha    LAI   NUM  kg/ha  %   H2O  Nitr Phos1 Phos2  RSTG                                   
 ------  --- ----------   -----  -----  ----  ---  ---  ----  ----  ----  ----  ----                                   
 28 MAR    0 Start Sim        0   0.00   0.0    0  0.0  0.00  0.00  0.00  0.00     7
 27 APR    0 Sowing           0   0.00   0.0    0  0.0  0.00  0.00  0.00  0.00     8
 28 APR    1 Germinate        0   0.00   0.0    0  0.0  0.00  0.00  0.00  0.00     9
  3 MAY    6 Emergence       25   0.00   2.1    1  4.4  0.00  0.01  0.00  0.00     1
 14 MAY   17 End Juveni      43   0.09   6.4    1  3.4  0.00  0.00  0.00  0.00     2
 21 MAY   24 Floral Ini     123   0.26   8.8    4  3.6  0.00  0.00  0.00  0.00     3
 26 JUN   60 75% Silkin    4018   1.92  18.5   89  2.2  0.20  0.00  0.00  0.00     4
  6 JUL   70 Beg Gr Fil    4263   1.36  18.5   89  2.1  0.71  0.00  0.00  0.00     5
 16 AUG  111 End Gr Fil    5182   0.28  18.5   89  1.7  0.81  0.00  0.00  0.00     6
 19 AUG  114 Maturity      5182   0.28  18.5   89  1.7  0.00  0.00  0.00  0.00    10
 19 AUG  114 Harvest       5182   0.28  18.5   89  1.7  0.00  0.00  0.00  0.00    10


*MAIN GROWTH AND DEVELOPMENT VARIABLES

@     VARIABLE                                         SIMULATED     MEASURED
      --------                                         ---------     --------
      Anthesis day (dap)                                      60          -99
      Physiological maturity day (dap)                       114          -99
      Yield at harvest maturity (kg [dm]/ha)                1319          -99
      Number at maturity (no/m2)                             786          -99
      Unit wt at maturity (g [dm]/unit)                   0.1677          -99
      Number at maturity (no/unit)                         130.7          -99
      Tops weight at maturity (kg [dm]/ha)                  5182          -99
      By-product produced (stalk) at maturity (kg[dm]/ha    3902          -99
      Leaf area index, maximum                              2.31          -99
      Harvest index at maturity                            0.254          -99
      Grain N at maturity (kg/ha)                             25          -99
      Tops N at maturity (kg/ha)                              89          -99
      Stem N at maturity (kg/ha)                              63          -99
      Grain N at maturity (%)                                1.9          -99
      Tops weight at anthesis (kg [dm]/ha)                  3993          -99
      Tops N at anthesis (kg/ha)                              89          -99
      Leaf number per stem at maturity                     18.51          -99
      Emergence day (dap)                                      6          -99


*ENVIRONMENTAL AND STRESS FACTORS

 |-----Development Phase------|--------------------------------------Environment--------------------------------------|-----------------Stress-----------------|
                              |---------------Average--------------|-----Cumulative-----|--------Count of days--------|          (0=Min, 1=Max Stress)         |
                         Time  Temp  Temp  Temp Solar Photop                Evapo    Pot TMIN TMIN TMAX TMAX TMAX RAIN|----Water----|---Nitrogen--|-Phosphorus-|
                         Span   Max   Min  Mean   Rad  [day]    CO2   Rain  Trans     ET   <    <    >    >    >    >   Photo         Photo         Photo
                         days    邂    邂    邂 MJ/m2     hr    ppm     mm     mm     mm  0邂  2邂 30邂 32邂 34邂  0mm  synth Growth  synth Growth  synth Growth
----------------------------------------------------------------------------------------------------------------------------------------------------------------
 Emergence-End Juvenile    11  30.0  19.9  24.9  13.7  24.00  340.9   26.4   30.2   42.2    0    0    6    0    0    6  0.000  0.000  0.002  0.005  0.000  0.000
 End Juvenil-Floral Init    7  29.6  19.4  24.5  14.9  24.00  341.0   74.5   27.4   28.5    0    0    1    0    0    6  0.000  0.000  0.000  0.001  0.000  0.000
 Floral Init-End Lf Grow   36  29.8  19.2  24.5  15.4  24.00  341.0  104.4  118.3  139.4    0    0   14    0    0   15  0.136  0.175  0.000  0.000  0.000  0.000
 End Lf Grth-Beg Grn Fil   10  31.7  18.5  25.1  18.2  24.00  341.1   25.6   13.7   45.1    0    0    9    3    1    2  0.752  0.802  0.000  0.000  0.000  0.000
 Grain Filling Phase       41  32.5  18.2  25.3  19.3  24.00  341.1   26.7   49.2  207.7    0    0   39   23    8    8  0.753  0.812  0.000  0.000  0.000  0.000


 Planting to Harvest      114  31.1  18.8  24.9  16.9  24.00  341.0  336.4  262.6  502.1    0    0   75   29   10   43  0.380  0.418  0.000  0.000  0.000  0.000
----------------------------------------------------------------------------------------------------------------------------------------------------------------


*Resource Productivity
 Growing season length: 114 days 

 Precipitation during growing season       336.4 mm[rain]
   Dry Matter Productivity                  1.54 kg[DM]/m3[rain]          =   15.4 kg[DM]/ha per mm[rain]
   Yield Productivity                       0.39 kg[grain yield]/m3[rain] =    3.9 kg[yield]/ha per mm[rain]

 Evapotranspiration during growing season  262.6 mm[ET]
   Dry Matter Productivity                  1.97 kg[DM]/m3[ET]            =   19.7 kg[DM]/ha per mm[ET]
   Yield Productivity                       0.50 kg[grain yield]/m3[ET]   =    5.0 kg[yield]/ha per mm[ET]

 Transpiration during growing season       101.0 mm[EP]
   Dry Matter Productivity                  5.13 kg[DM]/m3[EP]            =   51.3 kg[DM]/ha per mm[EP]
   Yield Productivity                       1.31 kg[grain yield]/m3[EP]   =   13.1 kg[yield]/ha per mm[EP]

 N applied during growing season            161. kg[N applied]/ha
   Dry Matter Productivity                  32.2 kg[DM]/kg[N applied]
   Yield Productivity                        8.2 kg[yield]/kg[N applied]

 N uptake during growing season               95 kg[N uptake]/ha
   Dry Matter Productivity                  54.5 kg[DM]/kg[N uptake]
   Yield Productivity                       13.9 kg[yield]/kg[N uptake]

--------------------------------------------------------------------------------------------------------------

                     Maize YIELD :     1319 kg/ha    [Dry weight] 

**************************************************************************************************************

*DSSAT Cropping System Model Ver. 4.6.1.000 -release      OCT 24, 2017; 09:08:29
                                                                                
*RUN   7        : P05/02                    MZCER046 ANBU1982    7              
 MODEL          : MZCER046 - Maize                                              
 EXPERIMENT     : ANBU1982 MZ  Analisis a침os de bajo rendimiento Buga          
 DATA PATH      : C:\DSSAT46\maize\                                             
 TREATMENT  7   : P05/02                    MZCER046                            
                                                                                
                                                                                
 CROP           : Maize            CULTIVAR : P30F35           ECOTYPE :IB0001  
 STARTING DATE  : APR  2 1982                                                   
 PLANTING DATE  : MAY  2 1982        PLANTS/m2 :  6.2     ROW SPACING :  80.cm  
 WEATHER        : CUNI   1982                                                   
 SOIL           : CCBUGA2017     TEXTURE : CL    -   Suelo Buga MADR Fase I     
 SOIL INITIAL C : DEPTH: 90cm EXTR. H2O: 83.9mm  NO3:  0.0kg/ha  NH4:  0.0kg/ha 
 WATER BALANCE  : RAINFED                                                       
 IRRIGATION     : NOT IRRIGATED                                                 
 NITROGEN BAL.  : SOIL-N & N-UPTAKE SIMULATION; NO N-FIXATION                   
 N-FERTILIZER   :      161 kg/ha IN     5 APPLICATIONS                          
 RESIDUE/MANURE : INITIAL :     0 kg/ha ;       0 kg/ha IN     0 APPLICATIONS   
 ENVIRONM. OPT. : DAYL=    0.00  SRAD=    0.00  TMAX=    0.00  TMIN=    0.00    
                  RAIN=    0.00  CO2 =    0.00  DEW =    0.00  WIND=    0.00    
 SIMULATION OPT : WATER   :Y  NITROGEN:Y  N-FIX:N  PHOSPH :N  PESTS  :N         
                  PHOTO   :C  ET      :R  INFIL:S  HYDROL :R  SOM    :G         
                  CO2 341ppm  NSWIT   :1  EVAP :S  SOIL   :2  STEMP  :D         
 MANAGEMENT OPT : PLANTING:R  IRRIG   :N  FERT :D  RESIDUE:R  HARVEST:M         
                  WEATHER :M  TILLAGE :N                                        
                                                                                
*SUMMARY OF SOIL AND GENETIC INPUT PARAMETERS                                   
                                                                                
   SOIL LOWER UPPER   SAT  EXTR  INIT   ROOT   BULK     pH    NO3    NH4    ORG 
  DEPTH LIMIT LIMIT    SW    SW    SW   DIST   DENS                          C  
   cm   cm3/cm3    cm3/cm3    cm3/cm3         g/cm3         ugN/g  ugN/g     %  
------------------------------------------------------------------------------- 
  0-  5 0.215 0.331 0.341 0.116 0.331   1.00   1.68   6.70   0.00   0.00   0.75 
  5- 15 0.215 0.331 0.341 0.116 0.331   1.00   1.68   6.70   0.00   0.00   0.75 
 15- 25 0.215 0.331 0.341 0.116 0.331   1.00   1.68   6.70   0.00   0.00   0.75 
 25- 35 0.181 0.291 0.364 0.110 0.291   0.50   1.61   7.20   0.00   0.00   0.53 
 35- 45 0.181 0.291 0.364 0.110 0.291   0.50   1.61   7.20   0.00   0.00   0.53 
 45- 67 0.096 0.169 0.404 0.073 0.169   0.27   1.51   7.00   0.00   0.00   0.05 
 67- 90 0.096 0.169 0.404 0.073 0.169   0.27   1.51   7.00   0.00   0.00   0.05 
                                                                                
TOT- 90  13.3  21.7  34.0   8.4  21.7  <--cm   -  kg/ha-->    0.0    0.0  51964 
SOIL ALBEDO    : 0.09      EVAPORATION LIMIT : 6.00         MIN. FACTOR  : 1.00 
RUNOFF CURVE # :76.00      DRAINAGE RATE     : 0.60         FERT. FACTOR : 1.00 
                                                                                
 Maize      CULTIVAR :CI0001-P30F35             ECOTYPE :IB0001                 
 P1     : 200.00  P2     : 0.3000  P5     : 925.00                              
 G2     : 954.00  G3     :  7.000  PHINT  : 50.000                              


*SIMULATED CROP AND SOIL STATUS AT MAIN DEVELOPMENT STAGES

 RUN NO.     7     P05/02                  

        CROP GROWTH     BIOMASS         LEAF   CROP N     STRESS      STRESS                                           
   DATE  AGE STAGE        kg/ha    LAI   NUM  kg/ha  %   H2O  Nitr Phos1 Phos2  RSTG                                   
 ------  --- ----------   -----  -----  ----  ---  ---  ----  ----  ----  ----  ----                                   
  2 APR    0 Start Sim        0   0.00   0.0    0  0.0  0.00  0.00  0.00  0.00     7
  2 MAY    0 Sowing           0   0.00   0.0    0  0.0  0.00  0.00  0.00  0.00     8
  3 MAY    1 Germinate        0   0.00   0.0    0  0.0  0.00  0.00  0.00  0.00     9
  8 MAY    6 Emergence       25   0.00   2.0    1  4.4  0.00  0.01  0.00  0.00     1
 19 MAY   17 End Juveni      41   0.09   6.4    2  3.7  0.00  0.00  0.00  0.00     2
 26 MAY   24 Floral Ini     129   0.27   8.7    5  3.6  0.00  0.00  0.00  0.00     3
  1 JUL   60 75% Silkin    3603   1.63  18.4   83  2.3  0.31  0.00  0.00  0.00     4
 11 JUL   70 Beg Gr Fil    4644   1.35  18.4   83  1.8  0.45  0.00  0.00  0.00     5
 20 AUG  110 End Gr Fil    5870   0.31  18.4   83  1.4  0.77  0.00  0.00  0.00     6
 23 AUG  113 Maturity      5870   0.31  18.4   83  1.4  0.00  0.00  0.00  0.00    10
 23 AUG  113 Harvest       5870   0.31  18.4   83  1.4  0.00  0.00  0.00  0.00    10


*MAIN GROWTH AND DEVELOPMENT VARIABLES

@     VARIABLE                                         SIMULATED     MEASURED
      --------                                         ---------     --------
      Anthesis day (dap)                                      60          -99
      Physiological maturity day (dap)                       113          -99
      Yield at harvest maturity (kg [dm]/ha)                2020          -99
      Number at maturity (no/m2)                            1600          -99
      Unit wt at maturity (g [dm]/unit)                   0.1263          -99
      Number at maturity (no/unit)                         258.1          -99
      Tops weight at maturity (kg [dm]/ha)                  5870          -99
      By-product produced (stalk) at maturity (kg[dm]/ha    3890          -99
      Leaf area index, maximum                              2.29          -99
      Harvest index at maturity                            0.344          -99
      Grain N at maturity (kg/ha)                             38          -99
      Tops N at maturity (kg/ha)                              83          -99
      Stem N at maturity (kg/ha)                              46          -99
      Grain N at maturity (%)                                1.9          -99
      Tops weight at anthesis (kg [dm]/ha)                  3568          -99
      Tops N at anthesis (kg/ha)                              83          -99
      Leaf number per stem at maturity                     18.40          -99
      Emergence day (dap)                                      6          -99


*ENVIRONMENTAL AND STRESS FACTORS

 |-----Development Phase------|--------------------------------------Environment--------------------------------------|-----------------Stress-----------------|
                              |---------------Average--------------|-----Cumulative-----|--------Count of days--------|          (0=Min, 1=Max Stress)         |
                         Time  Temp  Temp  Temp Solar Photop                Evapo    Pot TMIN TMIN TMAX TMAX TMAX RAIN|----Water----|---Nitrogen--|-Phosphorus-|
                         Span   Max   Min  Mean   Rad  [day]    CO2   Rain  Trans     ET   <    <    >    >    >    >   Photo         Photo         Photo
                         days    邂    邂    邂 MJ/m2     hr    ppm     mm     mm     mm  0邂  2邂 30邂 32邂 34邂  0mm  synth Growth  synth Growth  synth Growth
----------------------------------------------------------------------------------------------------------------------------------------------------------------
 Emergence-End Juvenile    11  29.7  19.7  24.7  14.4  24.00  340.9   66.9   32.9   44.3    0    0    4    0    0    7  0.000  0.000  0.002  0.005  0.000  0.000
 End Juvenil-Floral Init    7  28.6  19.4  24.0  15.5  24.00  341.0   69.6   29.6   29.6    0    0    0    0    0    6  0.000  0.000  0.000  0.000  0.000  0.000
 Floral Init-End Lf Grow   36  30.3  19.0  24.7  15.9  24.00  341.0   55.8  100.8  143.2    0    0   18    2    1   11  0.237  0.283  0.000  0.000  0.000  0.000
 End Lf Grth-Beg Grn Fil   10  31.5  18.5  25.0  18.4  24.00  341.1   25.6   27.4   45.9    0    0   10    2    0    2  0.392  0.461  0.000  0.000  0.000  0.000
 Grain Filling Phase       40  32.8  18.2  25.5  19.5  24.00  341.1   39.9   46.4  205.9    0    0   38   26   10    9  0.734  0.790  0.000  0.000  0.000  0.000


 Planting to Harvest      113  31.2  18.8  25.0  17.2  24.00  341.0  272.2  263.6  510.0    0    0   76   33   12   40  0.370  0.410  0.000  0.001  0.000  0.000
----------------------------------------------------------------------------------------------------------------------------------------------------------------


*Resource Productivity
 Growing season length: 113 days 

 Precipitation during growing season       272.2 mm[rain]
   Dry Matter Productivity                  2.16 kg[DM]/m3[rain]          =   21.6 kg[DM]/ha per mm[rain]
   Yield Productivity                       0.74 kg[grain yield]/m3[rain] =    7.4 kg[yield]/ha per mm[rain]

 Evapotranspiration during growing season  263.6 mm[ET]
   Dry Matter Productivity                  2.23 kg[DM]/m3[ET]            =   22.3 kg[DM]/ha per mm[ET]
   Yield Productivity                       0.77 kg[grain yield]/m3[ET]   =    7.7 kg[yield]/ha per mm[ET]

 Transpiration during growing season       100.4 mm[EP]
   Dry Matter Productivity                  5.85 kg[DM]/m3[EP]            =   58.5 kg[DM]/ha per mm[EP]
   Yield Productivity                       2.01 kg[grain yield]/m3[EP]   =   20.1 kg[yield]/ha per mm[EP]

 N applied during growing season            161. kg[N applied]/ha
   Dry Matter Productivity                  36.5 kg[DM]/kg[N applied]
   Yield Productivity                       12.5 kg[yield]/kg[N applied]

 N uptake during growing season               90 kg[N uptake]/ha
   Dry Matter Productivity                  65.2 kg[DM]/kg[N uptake]
   Yield Productivity                       22.4 kg[yield]/kg[N uptake]

--------------------------------------------------------------------------------------------------------------

                     Maize YIELD :     2020 kg/ha    [Dry weight] 

**************************************************************************************************************

*DSSAT Cropping System Model Ver. 4.6.1.000 -release      OCT 24, 2017; 09:08:31
                                                                                
*RUN   8        : P05/07                    MZCER046 ANBU1982    8              
 MODEL          : MZCER046 - Maize                                              
 EXPERIMENT     : ANBU1982 MZ  Analisis a침os de bajo rendimiento Buga          
 DATA PATH      : C:\DSSAT46\maize\                                             
 TREATMENT  8   : P05/07                    MZCER046                            
                                                                                
                                                                                
 CROP           : Maize            CULTIVAR : P30F35           ECOTYPE :IB0001  
 STARTING DATE  : APR  7 1982                                                   
 PLANTING DATE  : MAY  7 1982        PLANTS/m2 :  6.2     ROW SPACING :  80.cm  
 WEATHER        : CUNI   1982                                                   
 SOIL           : CCBUGA2017     TEXTURE : CL    -   Suelo Buga MADR Fase I     
 SOIL INITIAL C : DEPTH: 90cm EXTR. H2O: 83.9mm  NO3:  0.0kg/ha  NH4:  0.0kg/ha 
 WATER BALANCE  : RAINFED                                                       
 IRRIGATION     : NOT IRRIGATED                                                 
 NITROGEN BAL.  : SOIL-N & N-UPTAKE SIMULATION; NO N-FIXATION                   
 N-FERTILIZER   :      161 kg/ha IN     5 APPLICATIONS                          
 RESIDUE/MANURE : INITIAL :     0 kg/ha ;       0 kg/ha IN     0 APPLICATIONS   
 ENVIRONM. OPT. : DAYL=    0.00  SRAD=    0.00  TMAX=    0.00  TMIN=    0.00    
                  RAIN=    0.00  CO2 =    0.00  DEW =    0.00  WIND=    0.00    
 SIMULATION OPT : WATER   :Y  NITROGEN:Y  N-FIX:N  PHOSPH :N  PESTS  :N         
                  PHOTO   :C  ET      :R  INFIL:S  HYDROL :R  SOM    :G         
                  CO2 341ppm  NSWIT   :1  EVAP :S  SOIL   :2  STEMP  :D         
 MANAGEMENT OPT : PLANTING:R  IRRIG   :N  FERT :D  RESIDUE:R  HARVEST:M         
                  WEATHER :M  TILLAGE :N                                        
                                                                                
*SUMMARY OF SOIL AND GENETIC INPUT PARAMETERS                                   
                                                                                
   SOIL LOWER UPPER   SAT  EXTR  INIT   ROOT   BULK     pH    NO3    NH4    ORG 
  DEPTH LIMIT LIMIT    SW    SW    SW   DIST   DENS                          C  
   cm   cm3/cm3    cm3/cm3    cm3/cm3         g/cm3         ugN/g  ugN/g     %  
------------------------------------------------------------------------------- 
  0-  5 0.215 0.331 0.341 0.116 0.331   1.00   1.68   6.70   0.00   0.00   0.75 
  5- 15 0.215 0.331 0.341 0.116 0.331   1.00   1.68   6.70   0.00   0.00   0.75 
 15- 25 0.215 0.331 0.341 0.116 0.331   1.00   1.68   6.70   0.00   0.00   0.75 
 25- 35 0.181 0.291 0.364 0.110 0.291   0.50   1.61   7.20   0.00   0.00   0.53 
 35- 45 0.181 0.291 0.364 0.110 0.291   0.50   1.61   7.20   0.00   0.00   0.53 
 45- 67 0.096 0.169 0.404 0.073 0.169   0.27   1.51   7.00   0.00   0.00   0.05 
 67- 90 0.096 0.169 0.404 0.073 0.169   0.27   1.51   7.00   0.00   0.00   0.05 
                                                                                
TOT- 90  13.3  21.7  34.0   8.4  21.7  <--cm   -  kg/ha-->    0.0    0.0  51964 
SOIL ALBEDO    : 0.09      EVAPORATION LIMIT : 6.00         MIN. FACTOR  : 1.00 
RUNOFF CURVE # :76.00      DRAINAGE RATE     : 0.60         FERT. FACTOR : 1.00 
                                                                                
 Maize      CULTIVAR :CI0001-P30F35             ECOTYPE :IB0001                 
 P1     : 200.00  P2     : 0.3000  P5     : 925.00                              
 G2     : 954.00  G3     :  7.000  PHINT  : 50.000                              


*SIMULATED CROP AND SOIL STATUS AT MAIN DEVELOPMENT STAGES

 RUN NO.     8     P05/07                  

        CROP GROWTH     BIOMASS         LEAF   CROP N     STRESS      STRESS                                           
   DATE  AGE STAGE        kg/ha    LAI   NUM  kg/ha  %   H2O  Nitr Phos1 Phos2  RSTG                                   
 ------  --- ----------   -----  -----  ----  ---  ---  ----  ----  ----  ----  ----                                   
  7 APR    0 Start Sim        0   0.00   0.0    0  0.0  0.00  0.00  0.00  0.00     7
  7 MAY    0 Sowing           0   0.00   0.0    0  0.0  0.00  0.00  0.00  0.00     8
  8 MAY    1 Germinate        0   0.00   0.0    0  0.0  0.00  0.00  0.00  0.00     9
 13 MAY    6 Emergence       25   0.00   2.0    1  4.4  0.00  0.01  0.00  0.00     1
 25 MAY   18 End Juveni      44   0.09   6.7    1  3.3  0.00  0.00  0.00  0.00     2
  1 JUN   25 Floral Ini     157   0.32   9.0    6  3.6  0.00  0.00  0.00  0.00     3
  8 JUL   62 75% Silkin    4462   2.15  19.2   85  1.9  0.24  0.00  0.00  0.00     4
 18 JUL   72 Beg Gr Fil    4905   1.52  19.2   86  1.8  0.79  0.00  0.00  0.00     5
 26 AUG  111 End Gr Fil    6176   0.38  19.2   86  1.4  0.76  0.00  0.00  0.00     6
 29 AUG  114 Maturity      6176   0.38  19.2   86  1.4  0.89  0.00  0.00  0.00    10
[...]
 NITROGEN BAL.  : SOIL-N & N-UPTAKE SIMULATION; NO N-FIXATION                   
 N-FERTILIZER   :      161 kg/ha IN     5 APPLICATIONS                          
 RESIDUE/MANURE : INITIAL :     0 kg/ha ;       0 kg/ha IN     0 APPLICATIONS   
 ENVIRONM. OPT. : DAYL=    0.00  SRAD=    0.00  TMAX=    0.00  TMIN=    0.00    
                  RAIN=    0.00  CO2 =    0.00  DEW =    0.00  WIND=    0.00    
 SIMULATION OPT : WATER   :Y  NITROGEN:Y  N-FIX:N  PHOSPH :N  PESTS  :N         
                  PHOTO   :C  ET      :R  INFIL:S  HYDROL :R  SOM    :G         
                  CO2 341ppm  NSWIT   :1  EVAP :S  SOIL   :2  STEMP  :D         
 MANAGEMENT OPT : PLANTING:R  IRRIG   :N  FERT :D  RESIDUE:R  HARVEST:M         
                  WEATHER :M  TILLAGE :N                                        
                                                                                
*SUMMARY OF SOIL AND GENETIC INPUT PARAMETERS                                   
                                                                                
   SOIL LOWER UPPER   SAT  EXTR  INIT   ROOT   BULK     pH    NO3    NH4    ORG 
  DEPTH LIMIT LIMIT    SW    SW    SW   DIST   DENS                          C  
   cm   cm3/cm3    cm3/cm3    cm3/cm3         g/cm3         ugN/g  ugN/g     %  
------------------------------------------------------------------------------- 
  0-  5 0.215 0.331 0.341 0.116 0.331   1.00   1.68   6.70   0.00   0.00   0.75 
  5- 15 0.215 0.331 0.341 0.116 0.331   1.00   1.68   6.70   0.00   0.00   0.75 
 15- 25 0.215 0.331 0.341 0.116 0.331   1.00   1.68   6.70   0.00   0.00   0.75 
 25- 35 0.181 0.291 0.364 0.110 0.291   0.50   1.61   7.20   0.00   0.00   0.53 
 35- 45 0.181 0.291 0.364 0.110 0.291   0.50   1.61   7.20   0.00   0.00   0.53 
 45- 67 0.096 0.169 0.404 0.073 0.169   0.27   1.51   7.00   0.00   0.00   0.05 
 67- 90 0.096 0.169 0.404 0.073 0.169   0.27   1.51   7.00   0.00   0.00   0.05 
                                                                                
TOT- 90  13.3  21.7  34.0   8.4  21.7  <--cm   -  kg/ha-->    0.0    0.0  51964 
SOIL ALBEDO    : 0.09      EVAPORATION LIMIT : 6.00         MIN. FACTOR  : 1.00 
RUNOFF CURVE # :76.00      DRAINAGE RATE     : 0.60         FERT. FACTOR : 1.00 
                                                                                
 Maize      CULTIVAR :CI0001-P30F35             ECOTYPE :IB0001                 
 P1     : 200.00  P2     : 0.3000  P5     : 925.00                              
 G2     : 954.00  G3     :  7.000  PHINT  : 50.000                              


*SIMULATED CROP AND SOIL STATUS AT MAIN DEVELOPMENT STAGES

 RUN NO.    35     P12/14                  

        CROP GROWTH     BIOMASS         LEAF   CROP N     STRESS      STRESS                                           
   DATE  AGE STAGE        kg/ha    LAI   NUM  kg/ha  %   H2O  Nitr Phos1 Phos2  RSTG                                   
 ------  --- ----------   -----  -----  ----  ---  ---  ----  ----  ----  ----  ----                                   
 14 NOV    0 Start Sim        0   0.00   0.0    0  0.0  0.00  0.00  0.00  0.00     7
 14 DEC    0 Sowing           0   0.00   0.0    0  0.0  0.00  0.00  0.00  0.00     8
 15 DEC    1 Germinate        0   0.00   0.0    0  0.0  0.00  0.00  0.00  0.00     9
 20 DEC    6 Emergence       25   0.00   2.0    1  4.4  0.00  0.01  0.00  0.00     1
 31 DEC   17 End Juveni      52   0.11   6.4    2  3.3  0.00  0.00  0.00  0.00     2
  4 JAN   21 Floral Ini     115   0.24   7.9    4  3.7  0.00  0.00  0.00  0.00     3
  2 FEB   50 75% Silkin    1900   0.80  16.7   14  0.7  0.29  0.50  0.00  0.00     4
 11 FEB   59 Beg Gr Fil    2130   0.58  16.7   38  1.8  0.73  0.45  0.00  0.00     5
 20 MAR   96 End Gr Fil    2700   0.15  16.7   38  1.4  0.82  0.00  0.00  0.00     6
 22 MAR   98 Maturity      2700   0.15  16.7   38  1.4  0.87  0.00  0.00  0.00    10
 22 MAR   98 Harvest       2700   0.15  16.7   38  1.4  0.00  0.00  0.00  0.00    10


*MAIN GROWTH AND DEVELOPMENT VARIABLES

@     VARIABLE                                         SIMULATED     MEASURED
      --------                                         ---------     --------
      Anthesis day (dap)                                      50          -99
      Physiological maturity day (dap)                        98          -99
      Yield at harvest maturity (kg [dm]/ha)                 957          -99
      Number at maturity (no/m2)                             693          -99
      Unit wt at maturity (g [dm]/unit)                   0.1382          -99
      Number at maturity (no/unit)                         118.8          -99
      Tops weight at maturity (kg [dm]/ha)                  2700          -99
      By-product produced (stalk) at maturity (kg[dm]/ha    1767          -99
      Leaf area index, maximum                              1.12          -99
      Harvest index at maturity                            0.355          -99
      Grain N at maturity (kg/ha)                             18          -99
      Tops N at maturity (kg/ha)                              38          -99
      Stem N at maturity (kg/ha)                              19          -99
      Grain N at maturity (%)                                1.9          -99
      Tops weight at anthesis (kg [dm]/ha)                  1872          -99
      Tops N at anthesis (kg/ha)                              14          -99
      Leaf number per stem at maturity                     16.74          -99
      Emergence day (dap)                                      6          -99


*ENVIRONMENTAL AND STRESS FACTORS

 |-----Development Phase------|--------------------------------------Environment--------------------------------------|-----------------Stress-----------------|
                              |---------------Average--------------|-----Cumulative-----|--------Count of days--------|          (0=Min, 1=Max Stress)         |
                         Time  Temp  Temp  Temp Solar Photop                Evapo    Pot TMIN TMIN TMAX TMAX TMAX RAIN|----Water----|---Nitrogen--|-Phosphorus-|
                         Span   Max   Min  Mean   Rad  [day]    CO2   Rain  Trans     ET   <    <    >    >    >    >   Photo         Photo         Photo
                         days    邂    邂    邂 MJ/m2     hr    ppm     mm     mm     mm  0邂  2邂 30邂 32邂 34邂  0mm  synth Growth  synth Growth  synth Growth
----------------------------------------------------------------------------------------------------------------------------------------------------------------
 Emergence-End Juvenile    11  30.2  18.9  24.5  17.0   0.00  341.6    2.9   11.4   51.6    0    0    7    1    0    3  0.000  0.000  0.002  0.005  0.000  0.000
 End Juvenil-Floral Init    4  32.5  18.3  25.4  15.5   0.00  341.6    0.0    3.9   17.2    0    0    4    3    0    0  0.000  0.000  0.000  0.001  0.000  0.000
 Floral Init-End Lf Grow   29  33.6  20.3  26.9  16.9   0.00  341.7    3.8   54.5  131.3    0    0   28   22   15    5  0.163  0.265  0.300  0.473  0.000  0.000
 End Lf Grth-Beg Grn Fil    9  33.2  20.9  27.0  15.8   0.00  341.8   16.6   12.4   38.4    0    0    9    6    2    2  0.570  0.714  0.379  0.538  0.000  0.000
 Grain Filling Phase       37  33.8  21.0  27.4  16.5   3.84  341.9   17.0   33.3  172.8    0    0   35   33   19    6  0.727  0.818  0.000  0.000  0.000  0.000


 Planting to Harvest       98  33.0  20.3  26.6  16.7   1.68  341.8   49.3  126.5  451.9    0    0   87   67   37   17  0.392  0.471  0.124  0.190  0.000  0.000
----------------------------------------------------------------------------------------------------------------------------------------------------------------


*Resource Productivity
 Growing season length:  98 days 

 Precipitation during growing season        49.3 mm[rain]
   Dry Matter Productivity                  5.48 kg[DM]/m3[rain]          =   54.8 kg[DM]/ha per mm[rain]
   Yield Productivity                       1.94 kg[grain yield]/m3[rain] =   19.4 kg[yield]/ha per mm[rain]

 Evapotranspiration during growing season  126.5 mm[ET]
   Dry Matter Productivity                  2.14 kg[DM]/m3[ET]            =   21.4 kg[DM]/ha per mm[ET]
   Yield Productivity                       0.76 kg[grain yield]/m3[ET]   =    7.6 kg[yield]/ha per mm[ET]

 Transpiration during growing season        61.4 mm[EP]
   Dry Matter Productivity                  4.40 kg[DM]/m3[EP]            =   44.0 kg[DM]/ha per mm[EP]
   Yield Productivity                       1.56 kg[grain yield]/m3[EP]   =   15.6 kg[yield]/ha per mm[EP]

 N applied during growing season            161. kg[N applied]/ha
   Dry Matter Productivity                  16.8 kg[DM]/kg[N applied]
   Yield Productivity                        5.9 kg[yield]/kg[N applied]

 N uptake during growing season               42 kg[N uptake]/ha
   Dry Matter Productivity                  64.3 kg[DM]/kg[N uptake]
   Yield Productivity                       22.8 kg[yield]/kg[N uptake]

--------------------------------------------------------------------------------------------------------------

                     Maize YIELD :      957 kg/ha    [Dry weight] 

**************************************************************************************************************

*DSSAT Cropping System Model Ver. 4.6.1.000 -release      OCT 24, 2017; 09:08:45
                                                                                
*RUN  36        : P12/19                    MZCER046 ANBU1982   36              
 MODEL          : MZCER046 - Maize                                              
 EXPERIMENT     : ANBU1982 MZ  Analisis a침os de bajo rendimiento Buga          
 DATA PATH      : C:\DSSAT46\maize\                                             
 TREATMENT 36   : P12/19                    MZCER046                            
                                                                                
                                                                                
 CROP           : Maize            CULTIVAR : P30F35           ECOTYPE :IB0001  
 STARTING DATE  : NOV 19 1982                                                   
 PLANTING DATE  : DEC 19 1982        PLANTS/m2 :  6.2     ROW SPACING :  80.cm  
 WEATHER        : CUNI   1982                                                   
 SOIL           : CCBUGA2017     TEXTURE : CL    -   Suelo Buga MADR Fase I     
 SOIL INITIAL C : DEPTH: 90cm EXTR. H2O: 83.9mm  NO3:  0.0kg/ha  NH4:  0.0kg/ha 
 WATER BALANCE  : RAINFED                                                       
 IRRIGATION     : NOT IRRIGATED                                                 
 NITROGEN BAL.  : SOIL-N & N-UPTAKE SIMULATION; NO N-FIXATION                   
 N-FERTILIZER   :      161 kg/ha IN     5 APPLICATIONS                          
 RESIDUE/MANURE : INITIAL :     0 kg/ha ;       0 kg/ha IN     0 APPLICATIONS   
 ENVIRONM. OPT. : DAYL=    0.00  SRAD=    0.00  TMAX=    0.00  TMIN=    0.00    
                  RAIN=    0.00  CO2 =    0.00  DEW =    0.00  WIND=    0.00    
 SIMULATION OPT : WATER   :Y  NITROGEN:Y  N-FIX:N  PHOSPH :N  PESTS  :N         
                  PHOTO   :C  ET      :R  INFIL:S  HYDROL :R  SOM    :G         
                  CO2 341ppm  NSWIT   :1  EVAP :S  SOIL   :2  STEMP  :D         
 MANAGEMENT OPT : PLANTING:R  IRRIG   :N  FERT :D  RESIDUE:R  HARVEST:M         
                  WEATHER :M  TILLAGE :N                                        
                                                                                
*SUMMARY OF SOIL AND GENETIC INPUT PARAMETERS                                   
                                                                                
   SOIL LOWER UPPER   SAT  EXTR  INIT   ROOT   BULK     pH    NO3    NH4    ORG 
  DEPTH LIMIT LIMIT    SW    SW    SW   DIST   DENS                          C  
   cm   cm3/cm3    cm3/cm3    cm3/cm3         g/cm3         ugN/g  ugN/g     %  
------------------------------------------------------------------------------- 
  0-  5 0.215 0.331 0.341 0.116 0.331   1.00   1.68   6.70   0.00   0.00   0.75 
  5- 15 0.215 0.331 0.341 0.116 0.331   1.00   1.68   6.70   0.00   0.00   0.75 
 15- 25 0.215 0.331 0.341 0.116 0.331   1.00   1.68   6.70   0.00   0.00   0.75 
 25- 35 0.181 0.291 0.364 0.110 0.291   0.50   1.61   7.20   0.00   0.00   0.53 
 35- 45 0.181 0.291 0.364 0.110 0.291   0.50   1.61   7.20   0.00   0.00   0.53 
 45- 67 0.096 0.169 0.404 0.073 0.169   0.27   1.51   7.00   0.00   0.00   0.05 
 67- 90 0.096 0.169 0.404 0.073 0.169   0.27   1.51   7.00   0.00   0.00   0.05 
                                                                                
TOT- 90  13.3  21.7  34.0   8.4  21.7  <--cm   -  kg/ha-->    0.0    0.0  51964 
SOIL ALBEDO    : 0.09      EVAPORATION LIMIT : 6.00         MIN. FACTOR  : 1.00 
RUNOFF CURVE # :76.00      DRAINAGE RATE     : 0.60         FERT. FACTOR : 1.00 
                                                                                
 Maize      CULTIVAR :CI0001-P30F35             ECOTYPE :IB0001                 
 P1     : 200.00  P2     : 0.3000  P5     : 925.00                              
 G2     : 954.00  G3     :  7.000  PHINT  : 50.000                              


*SIMULATED CROP AND SOIL STATUS AT MAIN DEVELOPMENT STAGES

 RUN NO.    36     P12/19                  

        CROP GROWTH     BIOMASS         LEAF   CROP N     STRESS      STRESS                                           
   DATE  AGE STAGE        kg/ha    LAI   NUM  kg/ha  %   H2O  Nitr Phos1 Phos2  RSTG                                   
 ------  --- ----------   -----  -----  ----  ---  ---  ----  ----  ----  ----  ----                                   
 19 NOV    0 Start Sim        0   0.00   0.0    0  0.0  0.00  0.00  0.00  0.00     7
 19 DEC    0 Sowing           0   0.00   0.0    0  0.0  0.00  0.00  0.00  0.00     8
 20 DEC    1 Germinate        0   0.00   0.0    0  0.0  0.00  0.00  0.00  0.00     9
 25 DEC    6 Emergence       25   0.00   2.0    1  4.4  0.00  0.01  0.00  0.00     1
  5 JAN   17 End Juveni      64   0.14   6.4    2  3.3  0.00  0.00  0.00  0.00     2
  9 JAN   21 Floral Ini     152   0.31   8.0    6  3.7  0.00  0.00  0.00  0.00     3
  7 FEB   50 75% Silkin    1788   0.77  16.9   39  2.2  0.37  0.54  0.00  0.00     4
 16 FEB   59 Beg Gr Fil    2014   0.56  16.9   40  2.0  0.78  0.00  0.00  0.00     5
 25 MAR   96 End Gr Fil    2468   0.14  16.9   40  1.6  0.82  0.00  0.00  0.00     6
 28 MAR   99 Maturity      2468   0.14  16.9   40  1.6  0.00  0.00  0.00  0.00    10
 28 MAR   99 Harvest       2468   0.14  16.9   40  1.6  0.00  0.00  0.00  0.00    10


*MAIN GROWTH AND DEVELOPMENT VARIABLES

@     VARIABLE                                         SIMULATED     MEASURED
      --------                                         ---------     --------
      Anthesis day (dap)                                      50          -99
      Physiological maturity day (dap)                        99          -99
      Yield at harvest maturity (kg [dm]/ha)                 835          -99
      Number at maturity (no/m2)                             685          -99
      Unit wt at maturity (g [dm]/unit)                   0.1219          -99
      Number at maturity (no/unit)                         117.8          -99
      Tops weight at maturity (kg [dm]/ha)                  2468          -99
      By-product produced (stalk) at maturity (kg[dm]/ha    1658          -99
      Leaf area index, maximum                              1.11          -99
      Harvest index at maturity                            0.338          -99
      Grain N at maturity (kg/ha)                             16          -99
      Tops N at maturity (kg/ha)                              40          -99
      Stem N at maturity (kg/ha)                              24          -99
      Grain N at maturity (%)                                1.9          -99
      Tops weight at anthesis (kg [dm]/ha)                  1765          -99
      Tops N at anthesis (kg/ha)                              13          -99
      Leaf number per stem at maturity                     16.93          -99
      Emergence day (dap)                                      6          -99


*ENVIRONMENTAL AND STRESS FACTORS

 |-----Development Phase------|--------------------------------------Environment--------------------------------------|-----------------Stress-----------------|
                              |---------------Average--------------|-----Cumulative-----|--------Count of days--------|          (0=Min, 1=Max Stress)         |
                         Time  Temp  Temp  Temp Solar Photop                Evapo    Pot TMIN TMIN TMAX TMAX TMAX RAIN|----Water----|---Nitrogen--|-Phosphorus-|
                         Span   Max   Min  Mean   Rad  [day]    CO2   Rain  Trans     ET   <    <    >    >    >    >   Photo         Photo         Photo
                         days    邂    邂    邂 MJ/m2     hr    ppm     mm     mm     mm  0邂  2邂 30邂 32邂 34邂  0mm  synth Growth  synth Growth  synth Growth
----------------------------------------------------------------------------------------------------------------------------------------------------------------
 Emergence-End Juvenile    11  30.7  18.4  24.6  16.0   0.00  341.6    2.2    9.2   48.3    0    0    8    4    0    1  0.000  0.000  0.002  0.004  0.000  0.000
 End Juvenil-Floral Init    4  32.0  19.8  26.0  14.5   0.00  341.6    1.2    3.9   16.0    0    0    4    1    0    1  0.000  0.000  0.001  0.002  0.000  0.000
 Floral Init-End Lf Grow   29  33.9  20.5  27.2  17.0   0.00  341.7    4.2   51.5  132.3    0    0   28   25   17    5  0.227  0.342  0.326  0.512  0.000  0.000
 End Lf Grth-Beg Grn Fil    9  33.4  20.1  26.7  19.1   0.00  341.8   15.0   14.6   46.5    0    0    9    7    2    1  0.666  0.778  0.065  0.091  0.000  0.000
 Grain Filling Phase       37  33.8  21.2  27.5  16.0   5.45  342.0   39.1   31.0  168.1    0    0   35   32   20    8  0.756  0.838  0.000  0.000  0.000  0.000


 Planting to Harvest       99  33.1  20.4  26.7  16.5   2.44  341.8  108.5  126.7  451.2    0    0   90   69   39   20  0.410  0.484  0.102  0.159  0.000  0.000
----------------------------------------------------------------------------------------------------------------------------------------------------------------


*Resource Productivity
 Growing season length:  99 days 

 Precipitation during growing season       108.5 mm[rain]
   Dry Matter Productivity                  2.28 kg[DM]/m3[rain]          =   22.8 kg[DM]/ha per mm[rain]
   Yield Productivity                       0.77 kg[grain yield]/m3[rain] =    7.7 kg[yield]/ha per mm[rain]

 Evapotranspiration during growing season  126.7 mm[ET]
   Dry Matter Productivity                  1.95 kg[DM]/m3[ET]            =   19.5 kg[DM]/ha per mm[ET]
   Yield Productivity                       0.66 kg[grain yield]/m3[ET]   =    6.6 kg[yield]/ha per mm[ET]

 Transpiration during growing season        58.8 mm[EP]
   Dry Matter Productivity                  4.20 kg[DM]/m3[EP]            =   42.0 kg[DM]/ha per mm[EP]
   Yield Productivity                       1.42 kg[grain yield]/m3[EP]   =   14.2 kg[yield]/ha per mm[EP]

 N applied during growing season            161. kg[N applied]/ha
   Dry Matter Productivity                  15.3 kg[DM]/kg[N applied]
   Yield Productivity                        5.2 kg[yield]/kg[N applied]

 N uptake during growing season               44 kg[N uptake]/ha
   Dry Matter Productivity                  56.1 kg[DM]/kg[N uptake]
   Yield Productivity                       19.0 kg[yield]/kg[N uptake]

--------------------------------------------------------------------------------------------------------------

                     Maize YIELD :      835 kg/ha    [Dry weight] 

**************************************************************************************************************
