*SIMULATION OVERVIEW FILE

*DSSAT Cropping System Model Ver. 4.6.1.000 -release      OCT 24, 2017; 10:39:39
                                                                                
*RUN   1        : P04/02                    MZCER046 ANBU1997    1              
 MODEL          : MZCER046 - Maize                                              
 EXPERIMENT     : ANBU1997 MZ  Analisis a침os de bajo rendimiento Buga          
 DATA PATH      : C:\DSSAT46\maize\                                             
 TREATMENT  1   : P04/02                    MZCER046                            
                                                                                
                                                                                
 CROP           : Maize            CULTIVAR : P30F35           ECOTYPE :IB0001  
 STARTING DATE  : MAR  3 1997                                                   
 PLANTING DATE  : APR  2 1997        PLANTS/m2 :  6.2     ROW SPACING :  80.cm  
 WEATHER        : CUNI   1997                                                   
 SOIL           : CCBUGA2017     TEXTURE : CL    -   Suelo Buga MADR Fase I     
 SOIL INITIAL C : DEPTH: 90cm EXTR. H2O: 83.9mm  NO3:  0.0kg/ha  NH4:  0.0kg/ha 
 WATER BALANCE  : RAINFED                                                       
 IRRIGATION     : NOT IRRIGATED                                                 
 NITROGEN BAL.  : SOIL-N & N-UPTAKE SIMULATION; NO N-FIXATION                   
 N-FERTILIZER   :      161 kg/ha IN     5 APPLICATIONS                          
 RESIDUE/MANURE : INITIAL :     0 kg/ha ;       0 kg/ha IN     0 APPLICATIONS   
 ENVIRONM. OPT. : DAYL=    0.00  SRAD=    0.00  TMAX=    0.00  TMIN=    0.00    
                  RAIN=    0.00  CO2 =    0.00  DEW =    0.00  WIND=    0.00    
 SIMULATION OPT : WATER   :Y  NITROGEN:Y  N-FIX:N  PHOSPH :N  PESTS  :N         
                  PHOTO   :C  ET      :R  INFIL:S  HYDROL :R  SOM    :G         
                  CO2 363ppm  NSWIT   :1  EVAP :S  SOIL   :2  STEMP  :D         
 MANAGEMENT OPT : PLANTING:R  IRRIG   :N  FERT :D  RESIDUE:R  HARVEST:M         
                  WEATHER :M  TILLAGE :N                                        
                                                                                
*SUMMARY OF SOIL AND GENETIC INPUT PARAMETERS                                   
                                                                                
   SOIL LOWER UPPER   SAT  EXTR  INIT   ROOT   BULK     pH    NO3    NH4    ORG 
  DEPTH LIMIT LIMIT    SW    SW    SW   DIST   DENS                          C  
   cm   cm3/cm3    cm3/cm3    cm3/cm3         g/cm3         ugN/g  ugN/g     %  
------------------------------------------------------------------------------- 
  0-  5 0.215 0.331 0.341 0.116 0.331   1.00   1.68   6.70   0.00   0.00   0.75 
  5- 15 0.215 0.331 0.341 0.116 0.331   1.00   1.68   6.70   0.00   0.00   0.75 
 15- 25 0.215 0.331 0.341 0.116 0.331   1.00   1.68   6.70   0.00   0.00   0.75 
 25- 35 0.181 0.291 0.364 0.110 0.291   0.50   1.61   7.20   0.00   0.00   0.53 
 35- 45 0.181 0.291 0.364 0.110 0.291   0.50   1.61   7.20   0.00   0.00   0.53 
 45- 67 0.096 0.169 0.404 0.073 0.169   0.27   1.51   7.00   0.00   0.00   0.05 
 67- 90 0.096 0.169 0.404 0.073 0.169   0.27   1.51   7.00   0.00   0.00   0.05 
                                                                                
TOT- 90  13.3  21.7  34.0   8.4  21.7  <--cm   -  kg/ha-->    0.0    0.0  51964 
SOIL ALBEDO    : 0.09      EVAPORATION LIMIT : 6.00         MIN. FACTOR  : 1.00 
RUNOFF CURVE # :76.00      DRAINAGE RATE     : 0.60         FERT. FACTOR : 1.00 
                                                                                
 Maize      CULTIVAR :CI0001-P30F35             ECOTYPE :IB0001                 
 P1     : 200.00  P2     : 0.3000  P5     : 925.00                              
 G2     : 954.00  G3     :  7.000  PHINT  : 50.000                              


*SIMULATED CROP AND SOIL STATUS AT MAIN DEVELOPMENT STAGES

 RUN NO.     1     P04/02                  

        CROP GROWTH     BIOMASS         LEAF   CROP N     STRESS      STRESS                                           
   DATE  AGE STAGE        kg/ha    LAI   NUM  kg/ha  %   H2O  Nitr Phos1 Phos2  RSTG                                   
 ------  --- ----------   -----  -----  ----  ---  ---  ----  ----  ----  ----  ----                                   
  3 MAR    0 Start Sim        0   0.00   0.0    0  0.0  0.00  0.00  0.00  0.00     7
  2 APR    0 Sowing           0   0.00   0.0    0  0.0  0.00  0.00  0.00  0.00     8
  3 APR    1 Germinate        0   0.00   0.0    0  0.0  0.00  0.00  0.00  0.00     9
  8 APR    6 Emergence       25   0.00   2.0    1  4.4  0.00  0.01  0.00  0.00     1
 19 APR   17 End Juveni      67   0.15   6.7    2  3.4  0.00  0.00  0.00  0.00     2
 25 APR   23 Floral Ini     135   0.28   8.6    5  3.6  0.00  0.00  0.00  0.00     3
 30 MAY   58 75% Silkin    5228   2.79  18.1  106  2.0  0.01  0.00  0.00  0.00     4
 10 JUN   69 Beg Gr Fil    6702   2.60  18.1  106  1.6  0.17  0.00  0.00  0.00     5
 23 JUL  112 End Gr Fil   10476   0.99  18.1  129  1.2  0.49  0.00  0.00  0.00     6
 25 JUL  114 Maturity     10476   0.99  18.1  129  1.2  0.94  0.00  0.00  0.00    10
 25 JUL  114 Harvest      10476   0.99  18.1  129  1.2  0.00  0.00  0.00  0.00    10


*MAIN GROWTH AND DEVELOPMENT VARIABLES

@     VARIABLE                                         SIMULATED     MEASURED
      --------                                         ---------     --------
      Anthesis day (dap)                                      58          -99
      Physiological maturity day (dap)                       114          -99
      Yield at harvest maturity (kg [dm]/ha)                4557          -99
      Number at maturity (no/m2)                            1962          -99
      Unit wt at maturity (g [dm]/unit)                   0.2322          -99
      Number at maturity (no/unit)                         316.5          -99
      Tops weight at maturity (kg [dm]/ha)                 10476          -99
      By-product produced (stalk) at maturity (kg[dm]/ha    5964          -99
      Leaf area index, maximum                              2.93          -99
      Harvest index at maturity                            0.435          -99
      Grain N at maturity (kg/ha)                             81          -99
      Tops N at maturity (kg/ha)                             129          -99
      Stem N at maturity (kg/ha)                              48          -99
      Grain N at maturity (%)                                1.8          -99
      Tops weight at anthesis (kg [dm]/ha)                  5087          -99
      Tops N at anthesis (kg/ha)                             106          -99
      Leaf number per stem at maturity                     18.09          -99
      Emergence day (dap)                                      6          -99


*ENVIRONMENTAL AND STRESS FACTORS

 |-----Development Phase------|--------------------------------------Environment--------------------------------------|-----------------Stress-----------------|
                              |---------------Average--------------|-----Cumulative-----|--------Count of days--------|          (0=Min, 1=Max Stress)         |
                         Time  Temp  Temp  Temp Solar Photop                Evapo    Pot TMIN TMIN TMAX TMAX TMAX RAIN|----Water----|---Nitrogen--|-Phosphorus-|
                         Span   Max   Min  Mean   Rad  [day]    CO2   Rain  Trans     ET   <    <    >    >    >    >   Photo         Photo         Photo
                         days    邂    邂    邂 MJ/m2     hr    ppm     mm     mm     mm  0邂  2邂 30邂 32邂 34邂  0mm  synth Growth  synth Growth  synth Growth
----------------------------------------------------------------------------------------------------------------------------------------------------------------
 Emergence-End Juvenile    11  31.4  19.7  25.5  15.5  21.65  363.4   45.0   25.5   48.3    0    0    9    4    0    4  0.000  0.000  0.002  0.004  0.000  0.000
 End Juvenil-Floral Init    6  28.8  19.6  24.2  13.8  24.00  363.4   34.0   20.3   22.6    0    0    2    1    0    4  0.000  0.000  0.001  0.003  0.000  0.000
 Floral Init-End Lf Grow   35  30.4  18.8  24.6  15.4  24.00  363.5  117.0  118.7  135.5    0    0   21    7    0   12  0.000  0.013  0.000  0.000  0.000  0.000
 End Lf Grth-Beg Grn Fil   11  28.0  18.8  23.4  12.6  24.00  363.5  117.0   28.1   32.4    0    0    2    0    0    6  0.121  0.172  0.000  0.000  0.000  0.000
 Grain Filling Phase       43  31.3  18.2  24.8  17.0  24.00  363.7   38.0  103.0  179.6    0    0   31   10    4    8  0.413  0.472  0.000  0.000  0.000  0.000


 Planting to Harvest      114  30.7  18.8  24.7  15.9  23.39  363.5  360.0  303.4  460.3    0    0   71   28    6   35  0.183  0.215  0.000  0.001  0.000  0.000
----------------------------------------------------------------------------------------------------------------------------------------------------------------


*Resource Productivity
 Growing season length: 114 days 

 Precipitation during growing season       360.0 mm[rain]
   Dry Matter Productivity                  2.91 kg[DM]/m3[rain]          =   29.1 kg[DM]/ha per mm[rain]
   Yield Productivity                       1.27 kg[grain yield]/m3[rain] =   12.7 kg[yield]/ha per mm[rain]

 Evapotranspiration during growing season  303.4 mm[ET]
   Dry Matter Productivity                  3.45 kg[DM]/m3[ET]            =   34.5 kg[DM]/ha per mm[ET]
   Yield Productivity                       1.50 kg[grain yield]/m3[ET]   =   15.0 kg[yield]/ha per mm[ET]

 Transpiration during growing season       181.9 mm[EP]
   Dry Matter Productivity                  5.76 kg[DM]/m3[EP]            =   57.6 kg[DM]/ha per mm[EP]
   Yield Productivity                       2.50 kg[grain yield]/m3[EP]   =   25.0 kg[yield]/ha per mm[EP]

 N applied during growing season            161. kg[N applied]/ha
   Dry Matter Productivity                  65.1 kg[DM]/kg[N applied]
   Yield Productivity                       28.3 kg[yield]/kg[N applied]

 N uptake during growing season              143 kg[N uptake]/ha
   Dry Matter Productivity                  73.3 kg[DM]/kg[N uptake]
   Yield Productivity                       31.9 kg[yield]/kg[N uptake]

--------------------------------------------------------------------------------------------------------------

                     Maize YIELD :     4557 kg/ha    [Dry weight] 

**************************************************************************************************************

*DSSAT Cropping System Model Ver. 4.6.1.000 -release      OCT 24, 2017; 10:39:39
                                                                                
*RUN   2        : P04/07                    MZCER046 ANBU1997    2              
 MODEL          : MZCER046 - Maize                                              
 EXPERIMENT     : ANBU1997 MZ  Analisis a침os de bajo rendimiento Buga          
 DATA PATH      : C:\DSSAT46\maize\                                             
 TREATMENT  2   : P04/07                    MZCER046                            
                                                                                
                                                                                
 CROP           : Maize            CULTIVAR : P30F35           ECOTYPE :IB0001  
 STARTING DATE  : MAR  8 1997                                                   
 PLANTING DATE  : APR  7 1997        PLANTS/m2 :  6.2     ROW SPACING :  80.cm  
 WEATHER        : CUNI   1997                                                   
 SOIL           : CCBUGA2017     TEXTURE : CL    -   Suelo Buga MADR Fase I     
 SOIL INITIAL C : DEPTH: 90cm EXTR. H2O: 83.9mm  NO3:  0.0kg/ha  NH4:  0.0kg/ha 
 WATER BALANCE  : RAINFED                                                       
 IRRIGATION     : NOT IRRIGATED                                                 
 NITROGEN BAL.  : SOIL-N & N-UPTAKE SIMULATION; NO N-FIXATION                   
 N-FERTILIZER   :      161 kg/ha IN     5 APPLICATIONS                          
 RESIDUE/MANURE : INITIAL :     0 kg/ha ;       0 kg/ha IN     0 APPLICATIONS   
 ENVIRONM. OPT. : DAYL=    0.00  SRAD=    0.00  TMAX=    0.00  TMIN=    0.00    
                  RAIN=    0.00  CO2 =    0.00  DEW =    0.00  WIND=    0.00    
 SIMULATION OPT : WATER   :Y  NITROGEN:Y  N-FIX:N  PHOSPH :N  PESTS  :N         
                  PHOTO   :C  ET      :R  INFIL:S  HYDROL :R  SOM    :G         
                  CO2 363ppm  NSWIT   :1  EVAP :S  SOIL   :2  STEMP  :D         
 MANAGEMENT OPT : PLANTING:R  IRRIG   :N  FERT :D  RESIDUE:R  HARVEST:M         
                  WEATHER :M  TILLAGE :N                                        
                                                                                
*SUMMARY OF SOIL AND GENETIC INPUT PARAMETERS                                   
                                                                                
   SOIL LOWER UPPER   SAT  EXTR  INIT   ROOT   BULK     pH    NO3    NH4    ORG 
  DEPTH LIMIT LIMIT    SW    SW    SW   DIST   DENS                          C  
   cm   cm3/cm3    cm3/cm3    cm3/cm3         g/cm3         ugN/g  ugN/g     %  
------------------------------------------------------------------------------- 
  0-  5 0.215 0.331 0.341 0.116 0.331   1.00   1.68   6.70   0.00   0.00   0.75 
  5- 15 0.215 0.331 0.341 0.116 0.331   1.00   1.68   6.70   0.00   0.00   0.75 
 15- 25 0.215 0.331 0.341 0.116 0.331   1.00   1.68   6.70   0.00   0.00   0.75 
 25- 35 0.181 0.291 0.364 0.110 0.291   0.50   1.61   7.20   0.00   0.00   0.53 
 35- 45 0.181 0.291 0.364 0.110 0.291   0.50   1.61   7.20   0.00   0.00   0.53 
 45- 67 0.096 0.169 0.404 0.073 0.169   0.27   1.51   7.00   0.00   0.00   0.05 
 67- 90 0.096 0.169 0.404 0.073 0.169   0.27   1.51   7.00   0.00   0.00   0.05 
                                                                                
TOT- 90  13.3  21.7  34.0   8.4  21.7  <--cm   -  kg/ha-->    0.0    0.0  51964 
SOIL ALBEDO    : 0.09      EVAPORATION LIMIT : 6.00         MIN. FACTOR  : 1.00 
RUNOFF CURVE # :76.00      DRAINAGE RATE     : 0.60         FERT. FACTOR : 1.00 
                                                                                
 Maize      CULTIVAR :CI0001-P30F35             ECOTYPE :IB0001                 
 P1     : 200.00  P2     : 0.3000  P5     : 925.00                              
 G2     : 954.00  G3     :  7.000  PHINT  : 50.000                              


*SIMULATED CROP AND SOIL STATUS AT MAIN DEVELOPMENT STAGES

 RUN NO.     2     P04/07                  

        CROP GROWTH     BIOMASS         LEAF   CROP N     STRESS      STRESS                                           
   DATE  AGE STAGE        kg/ha    LAI   NUM  kg/ha  %   H2O  Nitr Phos1 Phos2  RSTG                                   
 ------  --- ----------   -----  -----  ----  ---  ---  ----  ----  ----  ----  ----                                   
  8 MAR    0 Start Sim        0   0.00   0.0    0  0.0  0.00  0.00  0.00  0.00     7
  7 APR    0 Sowing           0   0.00   0.0    0  0.0  0.00  0.00  0.00  0.00     8
  8 APR    1 Germinate        0   0.00   0.0    0  0.0  0.00  0.00  0.00  0.00     9
 13 APR    6 Emergence       25   0.00   2.0    1  4.4  0.00  0.01  0.00  0.00     1
 24 APR   17 End Juveni      44   0.10   6.5    1  3.3  0.00  0.00  0.00  0.00     2
  1 MAY   24 Floral Ini     169   0.34   8.9    6  3.6  0.00  0.00  0.00  0.00     3
  7 JUN   61 75% Silkin    4935   2.80  19.0  101  2.0  0.04  0.00  0.00  0.00     4
 18 JUN   72 Beg Gr Fil    7016   2.64  19.0  106  1.5  0.00  0.00  0.00  0.00     5
 29 JUL  113 End Gr Fil   10350   0.82  19.0  126  1.2  0.62  0.00  0.00  0.00     6
  1 AUG  116 Maturity     10350   0.82  19.0  126  1.2  0.00  0.00  0.00  0.00    10
  1 AUG  116 Harvest      10350   0.82  19.0  126  1.2  0.00  0.00  0.00  0.00    10


*MAIN GROWTH AND DEVELOPMENT VARIABLES

@     VARIABLE                                         SIMULATED     MEASURED
      --------                                         ---------     --------
      Anthesis day (dap)                                      61          -99
      Physiological maturity day (dap)                       116          -99
      Yield at harvest maturity (kg [dm]/ha)                4761          -99
      Number at maturity (no/m2)                            2457          -99
      Unit wt at maturity (g [dm]/unit)                   0.1938          -99
      Number at maturity (no/unit)                         396.3          -99
      Tops weight at maturity (kg [dm]/ha)                 10350          -99
      By-product produced (stalk) at maturity (kg[dm]/ha    5635          -99
      Leaf area index, maximum                              2.83          -99
      Harvest index at maturity                            0.460          -99
      Grain N at maturity (kg/ha)                             86          -99
      Tops N at maturity (kg/ha)                             126          -99
      Stem N at maturity (kg/ha)                              40          -99
      Grain N at maturity (%)                                1.8          -99
      Tops weight at anthesis (kg [dm]/ha)                  4819          -99
      Tops N at anthesis (kg/ha)                             100          -99
      Leaf number per stem at maturity                     18.97          -99
      Emergence day (dap)                                      6          -99


*ENVIRONMENTAL AND STRESS FACTORS

 |-----Development Phase------|--------------------------------------Environment--------------------------------------|-----------------Stress-----------------|
                              |---------------Average--------------|-----Cumulative-----|--------Count of days--------|          (0=Min, 1=Max Stress)         |
                         Time  Temp  Temp  Temp Solar Photop                Evapo    Pot TMIN TMIN TMAX TMAX TMAX RAIN|----Water----|---Nitrogen--|-Phosphorus-|
                         Span   Max   Min  Mean   Rad  [day]    CO2   Rain  Trans     ET   <    <    >    >    >    >   Photo         Photo         Photo
                         days    邂    邂    邂 MJ/m2     hr    ppm     mm     mm     mm  0邂  2邂 30邂 32邂 34邂  0mm  synth Growth  synth Growth  synth Growth
----------------------------------------------------------------------------------------------------------------------------------------------------------------
 Emergence-End Juvenile    11  30.3  19.7  25.0  14.6  23.71  363.4   72.0   34.2   45.2    0    0    8    3    0    6  0.000  0.000  0.002  0.004  0.000  0.000
 End Juvenil-Floral Init    7  30.0  18.9  24.4  16.7  24.00  363.4   33.0   25.8   32.2    0    0    2    2    0    2  0.000  0.000  0.001  0.001  0.000  0.000
 Floral Init-End Lf Grow   37  30.0  18.9  24.5  14.7  24.00  363.5  180.0  114.8  135.7    0    0   21    5    0   13  0.023  0.041  0.000  0.000  0.000  0.000
 End Lf Grth-Beg Grn Fil   11  29.0  18.7  23.8  13.7  24.00  363.6   31.0   35.6   35.7    0    0    3    0    0    5  0.000  0.000  0.000  0.000  0.000  0.000
 Grain Filling Phase       41  31.9  18.1  25.0  17.3  24.00  363.7   39.0   80.6  176.4    0    0   34   13    7    7  0.548  0.620  0.000  0.000  0.000  0.000


 Planting to Harvest      116  30.7  18.7  24.7  15.8  23.72  363.6  401.0  310.7  466.3    0    0   74   27    7   37  0.201  0.232  0.000  0.000  0.000  0.000
----------------------------------------------------------------------------------------------------------------------------------------------------------------


*Resource Productivity
 Growing season length: 116 days 

 Precipitation during growing season       401.0 mm[rain]
   Dry Matter Productivity                  2.58 kg[DM]/m3[rain]          =   25.8 kg[DM]/ha per mm[rain]
   Yield Productivity                       1.19 kg[grain yield]/m3[rain] =   11.9 kg[yield]/ha per mm[rain]

 Evapotranspiration during growing season  310.7 mm[ET]
   Dry Matter Productivity                  3.33 kg[DM]/m3[ET]            =   33.3 kg[DM]/ha per mm[ET]
   Yield Productivity                       1.53 kg[grain yield]/m3[ET]   =   15.3 kg[yield]/ha per mm[ET]

 Transpiration during growing season       179.8 mm[EP]
   Dry Matter Productivity                  5.76 kg[DM]/m3[EP]            =   57.6 kg[DM]/ha per mm[EP]
   Yield Productivity                       2.65 kg[grain yield]/m3[EP]   =   26.5 kg[yield]/ha per mm[EP]

 N applied during growing season            161. kg[N applied]/ha
   Dry Matter Productivity                  64.3 kg[DM]/kg[N applied]
   Yield Productivity                       29.6 kg[yield]/kg[N applied]

 N uptake during growing season              139 kg[N uptake]/ha
   Dry Matter Productivity                  74.5 kg[DM]/kg[N uptake]
   Yield Productivity                       34.3 kg[yield]/kg[N uptake]

--------------------------------------------------------------------------------------------------------------

                     Maize YIELD :     4761 kg/ha    [Dry weight] 

**************************************************************************************************************

*DSSAT Cropping System Model Ver. 4.6.1.000 -release      OCT 24, 2017; 10:39:39
                                                                                
*RUN   3        : P04/12                    MZCER046 ANBU1997    3              
 MODEL          : MZCER046 - Maize                                              
 EXPERIMENT     : ANBU1997 MZ  Analisis a침os de bajo rendimiento Buga          
 DATA PATH      : C:\DSSAT46\maize\                                             
 TREATMENT  3   : P04/12                    MZCER046                            
                                                                                
                                                                                
 CROP           : Maize            CULTIVAR : P30F35           ECOTYPE :IB0001  
 STARTING DATE  : MAR 13 1997                                                   
 PLANTING DATE  : APR 12 1997        PLANTS/m2 :  6.2     ROW SPACING :  80.cm  
 WEATHER        : CUNI   1997                                                   
 SOIL           : CCBUGA2017     TEXTURE : CL    -   Suelo Buga MADR Fase I     
 SOIL INITIAL C : DEPTH: 90cm EXTR. H2O: 83.9mm  NO3:  0.0kg/ha  NH4:  0.0kg/ha 
 WATER BALANCE  : RAINFED                                                       
 IRRIGATION     : NOT IRRIGATED                                                 
 NITROGEN BAL.  : SOIL-N & N-UPTAKE SIMULATION; NO N-FIXATION                   
 N-FERTILIZER   :      161 kg/ha IN     5 APPLICATIONS                          
 RESIDUE/MANURE : INITIAL :     0 kg/ha ;       0 kg/ha IN     0 APPLICATIONS   
 ENVIRONM. OPT. : DAYL=    0.00  SRAD=    0.00  TMAX=    0.00  TMIN=    0.00    
                  RAIN=    0.00  CO2 =    0.00  DEW =    0.00  WIND=    0.00    
 SIMULATION OPT : WATER   :Y  NITROGEN:Y  N-FIX:N  PHOSPH :N  PESTS  :N         
                  PHOTO   :C  ET      :R  INFIL:S  HYDROL :R  SOM    :G         
                  CO2 363ppm  NSWIT   :1  EVAP :S  SOIL   :2  STEMP  :D         
 MANAGEMENT OPT : PLANTING:R  IRRIG   :N  FERT :D  RESIDUE:R  HARVEST:M         
                  WEATHER :M  TILLAGE :N                                        
                                                                                
*SUMMARY OF SOIL AND GENETIC INPUT PARAMETERS                                   
                                                                                
   SOIL LOWER UPPER   SAT  EXTR  INIT   ROOT   BULK     pH    NO3    NH4    ORG 
  DEPTH LIMIT LIMIT    SW    SW    SW   DIST   DENS                          C  
   cm   cm3/cm3    cm3/cm3    cm3/cm3         g/cm3         ugN/g  ugN/g     %  
------------------------------------------------------------------------------- 
  0-  5 0.215 0.331 0.341 0.116 0.331   1.00   1.68   6.70   0.00   0.00   0.75 
  5- 15 0.215 0.331 0.341 0.116 0.331   1.00   1.68   6.70   0.00   0.00   0.75 
 15- 25 0.215 0.331 0.341 0.116 0.331   1.00   1.68   6.70   0.00   0.00   0.75 
 25- 35 0.181 0.291 0.364 0.110 0.291   0.50   1.61   7.20   0.00   0.00   0.53 
 35- 45 0.181 0.291 0.364 0.110 0.291   0.50   1.61   7.20   0.00   0.00   0.53 
 45- 67 0.096 0.169 0.404 0.073 0.169   0.27   1.51   7.00   0.00   0.00   0.05 
 67- 90 0.096 0.169 0.404 0.073 0.169   0.27   1.51   7.00   0.00   0.00   0.05 
                                                                                
TOT- 90  13.3  21.7  34.0   8.4  21.7  <--cm   -  kg/ha-->    0.0    0.0  51964 
SOIL ALBEDO    : 0.09      EVAPORATION LIMIT : 6.00         MIN. FACTOR  : 1.00 
RUNOFF CURVE # :76.00      DRAINAGE RATE     : 0.60         FERT. FACTOR : 1.00 
                                                                                
 Maize      CULTIVAR :CI0001-P30F35             ECOTYPE :IB0001                 
 P1     : 200.00  P2     : 0.3000  P5     : 925.00                              
 G2     : 954.00  G3     :  7.000  PHINT  : 50.000                              


*SIMULATED CROP AND SOIL STATUS AT MAIN DEVELOPMENT STAGES

 RUN NO.     3     P04/12                  

        CROP GROWTH     BIOMASS         LEAF   CROP N     STRESS      STRESS                                           
   DATE  AGE STAGE        kg/ha    LAI   NUM  kg/ha  %   H2O  Nitr Phos1 Phos2  RSTG                                   
 ------  --- ----------   -----  -----  ----  ---  ---  ----  ----  ----  ----  ----                                   
 13 MAR    0 Start Sim        0   0.00   0.0    0  0.0  0.00  0.00  0.00  0.00     7
 12 APR    0 Sowing           0   0.00   0.0    0  0.0  0.00  0.00  0.00  0.00     8
 13 APR    1 Germinate        0   0.00   0.0    0  0.0  0.00  0.00  0.00  0.00     9
 18 APR    6 Emergence       25   0.00   2.0    1  4.4  0.00  0.01  0.00  0.00     1
 29 APR   17 End Juveni      47   0.10   6.3    2  3.2  0.00  0.00  0.00  0.00     2
  6 MAY   24 Floral Ini     202   0.39   8.8    7  3.6  0.00  0.00  0.00  0.00     3
 12 JUN   61 75% Silkin    4587   2.70  18.8   92  2.0  0.04  0.00  0.00  0.00     4
 23 JUN   72 Beg Gr Fil    6853   2.54  18.8   93  1.4  0.03  0.00  0.00  0.00     5
  3 AUG  113 End Gr Fil   10267   0.80  18.8  114  1.1  0.61  0.00  0.00  0.00     6
  6 AUG  116 Maturity     10267   0.80  18.8  114  1.1  0.00  0.00  0.00  0.00    10
  6 AUG  116 Harvest      10267   0.80  18.8  114  1.1  0.00  0.00  0.00  0.00    10


*MAIN GROWTH AND DEVELOPMENT VARIABLES

@     VARIABLE                                         SIMULATED     MEASURED
      --------                                         ---------     --------
      Anthesis day (dap)                                      61          -99
      Physiological maturity day (dap)                       116          -99
      Yield at harvest maturity (kg [dm]/ha)                4498          -99
      Number at maturity (no/m2)                            2673          -99
      Unit wt at maturity (g [dm]/unit)                   0.1683          -99
      Number at maturity (no/unit)                         431.1          -99
      Tops weight at maturity (kg [dm]/ha)                 10267          -99
      By-product produced (stalk) at maturity (kg[dm]/ha    5814          -99
      Leaf area index, maximum                              2.73          -99
      Harvest index at maturity                            0.438          -99
      Grain N at maturity (kg/ha)                             81          -99
      Tops N at maturity (kg/ha)                             114          -99
      Stem N at maturity (kg/ha)                              33          -99
      Grain N at maturity (%)                                1.8          -99
      Tops weight at anthesis (kg [dm]/ha)                  4384          -99
      Tops N at anthesis (kg/ha)                              91          -99
      Leaf number per stem at maturity                     18.76          -99
      Emergence day (dap)                                      6          -99


*ENVIRONMENTAL AND STRESS FACTORS

 |-----Development Phase------|--------------------------------------Environment--------------------------------------|-----------------Stress-----------------|
                              |---------------Average--------------|-----Cumulative-----|--------Count of days--------|          (0=Min, 1=Max Stress)         |
                         Time  Temp  Temp  Temp Solar Photop                Evapo    Pot TMIN TMIN TMAX TMAX TMAX RAIN|----Water----|---Nitrogen--|-Phosphorus-|
                         Span   Max   Min  Mean   Rad  [day]    CO2   Rain  Trans     ET   <    <    >    >    >    >   Photo         Photo         Photo
                         days    邂    邂    邂 MJ/m2     hr    ppm     mm     mm     mm  0邂  2邂 30邂 32邂 34邂  0mm  synth Growth  synth Growth  synth Growth
----------------------------------------------------------------------------------------------------------------------------------------------------------------
 Emergence-End Juvenile    11  29.1  19.4  24.2  14.0  24.00  363.4   71.0   38.0   42.6    0    0    3    1    0    7  0.000  0.000  0.002  0.004  0.000  0.000
 End Juvenil-Floral Init    7  31.8  18.1  24.9  18.0  24.00  363.4    2.0   11.4   34.7    0    0    6    4    0    1  0.000  0.000  0.000  0.000  0.000  0.000
 Floral Init-End Lf Grow   37  29.6  19.0  24.3  14.1  24.00  363.5  199.0  115.1  129.5    0    0   17    3    0   15  0.021  0.037  0.000  0.000  0.000  0.000
 End Lf Grth-Beg Grn Fil   11  30.2  18.7  24.4  15.4  24.00  363.6   10.0   40.3   40.4    0    0    6    0    0    2  0.000  0.007  0.000  0.000  0.000  0.000
 Grain Filling Phase       41  32.1  18.0  25.1  17.7  24.00  363.7   78.0   79.8  182.5    0    0   36   16    7    9  0.548  0.615  0.000  0.000  0.000  0.000


 Planting to Harvest      116  30.8  18.6  24.7  16.1  23.94  363.6  394.0  312.7  476.3    0    0   77   30    8   35  0.200  0.230  0.000  0.000  0.000  0.000
----------------------------------------------------------------------------------------------------------------------------------------------------------------


*Resource Productivity
 Growing season length: 116 days 

 Precipitation during growing season       394.0 mm[rain]
   Dry Matter Productivity                  2.61 kg[DM]/m3[rain]          =   26.1 kg[DM]/ha per mm[rain]
   Yield Productivity                       1.14 kg[grain yield]/m3[rain] =   11.4 kg[yield]/ha per mm[rain]

 Evapotranspiration during growing season  312.7 mm[ET]
   Dry Matter Productivity                  3.28 kg[DM]/m3[ET]            =   32.8 kg[DM]/ha per mm[ET]
   Yield Productivity                       1.44 kg[grain yield]/m3[ET]   =   14.4 kg[yield]/ha per mm[ET]

 Transpiration during growing season       174.1 mm[EP]
   Dry Matter Productivity                  5.90 kg[DM]/m3[EP]            =   59.0 kg[DM]/ha per mm[EP]
   Yield Productivity                       2.58 kg[grain yield]/m3[EP]   =   25.8 kg[yield]/ha per mm[EP]

 N applied during growing season            161. kg[N applied]/ha
   Dry Matter Productivity                  63.8 kg[DM]/kg[N applied]
   Yield Productivity                       27.9 kg[yield]/kg[N applied]

 N uptake during growing season              126 kg[N uptake]/ha
   Dry Matter Productivity                  81.5 kg[DM]/kg[N uptake]
   Yield Productivity                       35.7 kg[yield]/kg[N uptake]

--------------------------------------------------------------------------------------------------------------

                     Maize YIELD :     4498 kg/ha    [Dry weight] 

**************************************************************************************************************

*DSSAT Cropping System Model Ver. 4.6.1.000 -release      OCT 24, 2017; 10:39:40
                                                                                
*RUN   4        : P04/17                    MZCER046 ANBU1997    4              
 MODEL          : MZCER046 - Maize                                              
 EXPERIMENT     : ANBU1997 MZ  Analisis a침os de bajo rendimiento Buga          
 DATA PATH      : C:\DSSAT46\maize\                                             
 TREATMENT  4   : P04/17                    MZCER046                            
                                                                                
                                                                                
 CROP           : Maize            CULTIVAR : P30F35           ECOTYPE :IB0001  
 STARTING DATE  : MAR 18 1997                                                   
 PLANTING DATE  : APR 17 1997        PLANTS/m2 :  6.2     ROW SPACING :  80.cm  
 WEATHER        : CUNI   1997                                                   
 SOIL           : CCBUGA2017     TEXTURE : CL    -   Suelo Buga MADR Fase I     
 SOIL INITIAL C : DEPTH: 90cm EXTR. H2O: 83.9mm  NO3:  0.0kg/ha  NH4:  0.0kg/ha 
 WATER BALANCE  : RAINFED                                                       
 IRRIGATION     : NOT IRRIGATED                                                 
 NITROGEN BAL.  : SOIL-N & N-UPTAKE SIMULATION; NO N-FIXATION                   
 N-FERTILIZER   :      161 kg/ha IN     5 APPLICATIONS                          
 RESIDUE/MANURE : INITIAL :     0 kg/ha ;       0 kg/ha IN     0 APPLICATIONS   
 ENVIRONM. OPT. : DAYL=    0.00  SRAD=    0.00  TMAX=    0.00  TMIN=    0.00    
                  RAIN=    0.00  CO2 =    0.00  DEW =    0.00  WIND=    0.00    
 SIMULATION OPT : WATER   :Y  NITROGEN:Y  N-FIX:N  PHOSPH :N  PESTS  :N         
                  PHOTO   :C  ET      :R  INFIL:S  HYDROL :R  SOM    :G         
                  CO2 363ppm  NSWIT   :1  EVAP :S  SOIL   :2  STEMP  :D         
 MANAGEMENT OPT : PLANTING:R  IRRIG   :N  FERT :D  RESIDUE:R  HARVEST:M         
                  WEATHER :M  TILLAGE :N                                        
                                                                                
*SUMMARY OF SOIL AND GENETIC INPUT PARAMETERS                                   
                                                                                
   SOIL LOWER UPPER   SAT  EXTR  INIT   ROOT   BULK     pH    NO3    NH4    ORG 
  DEPTH LIMIT LIMIT    SW    SW    SW   DIST   DENS                          C  
   cm   cm3/cm3    cm3/cm3    cm3/cm3         g/cm3         ugN/g  ugN/g     %  
------------------------------------------------------------------------------- 
  0-  5 0.215 0.331 0.341 0.116 0.331   1.00   1.68   6.70   0.00   0.00   0.75 
  5- 15 0.215 0.331 0.341 0.116 0.331   1.00   1.68   6.70   0.00   0.00   0.75 
 15- 25 0.215 0.331 0.341 0.116 0.331   1.00   1.68   6.70   0.00   0.00   0.75 
 25- 35 0.181 0.291 0.364 0.110 0.291   0.50   1.61   7.20   0.00   0.00   0.53 
 35- 45 0.181 0.291 0.364 0.110 0.291   0.50   1.61   7.20   0.00   0.00   0.53 
 45- 67 0.096 0.169 0.404 0.073 0.169   0.27   1.51   7.00   0.00   0.00   0.05 
 67- 90 0.096 0.169 0.404 0.073 0.169   0.27   1.51   7.00   0.00   0.00   0.05 
                                                                                
TOT- 90  13.3  21.7  34.0   8.4  21.7  <--cm   -  kg/ha-->    0.0    0.0  51964 
SOIL ALBEDO    : 0.09      EVAPORATION LIMIT : 6.00         MIN. FACTOR  : 1.00 
RUNOFF CURVE # :76.00      DRAINAGE RATE     : 0.60         FERT. FACTOR : 1.00 
                                                                                
 Maize      CULTIVAR :CI0001-P30F35             ECOTYPE :IB0001                 
 P1     : 200.00  P2     : 0.3000  P5     : 925.00                              
 G2     : 954.00  G3     :  7.000  PHINT  : 50.000                              


*SIMULATED CROP AND SOIL STATUS AT MAIN DEVELOPMENT STAGES

 RUN NO.     4     P04/17                  

        CROP GROWTH     BIOMASS         LEAF   CROP N     STRESS      STRESS                                           
   DATE  AGE STAGE        kg/ha    LAI   NUM  kg/ha  %   H2O  Nitr Phos1 Phos2  RSTG                                   
 ------  --- ----------   -----  -----  ----  ---  ---  ----  ----  ----  ----  ----                                   
 18 MAR    0 Start Sim        0   0.00   0.0    0  0.0  0.00  0.00  0.00  0.00     7
 17 APR    0 Sowing           0   0.00   0.0    0  0.0  0.00  0.00  0.00  0.00     8
 18 APR    1 Germinate        0   0.00   0.0    0  0.0  0.00  0.00  0.00  0.00     9
 23 APR    6 Emergence       25   0.00   2.0    1  4.4  0.00  0.01  0.00  0.00     1
  5 MAY   18 End Juveni      75   0.16   6.8    2  3.3  0.00  0.00  0.00  0.00     2
 12 MAY   25 Floral Ini     219   0.42   9.2    8  3.6  0.00  0.00  0.00  0.00     3
 19 JUN   63 75% Silkin    5333   3.01  19.3  105  2.0  0.04  0.00  0.00  0.00     4
 29 JUN   73 Beg Gr Fil    7101   2.70  19.3  106  1.5  0.31  0.00  0.00  0.00     5
  9 AUG  114 End Gr Fil   10429   0.86  19.3  121  1.2  0.61  0.00  0.00  0.00     6
 12 AUG  117 Maturity     10429   0.86  19.3  121  1.2  0.79  0.00  0.00  0.00    10
 12 AUG  117 Harvest      10429   0.86  19.3  121  1.2  0.00  0.00  0.00  0.00    10


*MAIN GROWTH AND DEVELOPMENT VARIABLES

@     VARIABLE                                         SIMULATED     MEASURED
      --------                                         ---------     --------
      Anthesis day (dap)                                      63          -99
      Physiological maturity day (dap)                       117          -99
      Yield at harvest maturity (kg [dm]/ha)                4531          -99
      Number at maturity (no/m2)                            2527          -99
      Unit wt at maturity (g [dm]/unit)                   0.1793          -99
      Number at maturity (no/unit)                         407.7          -99
      Tops weight at maturity (kg [dm]/ha)                 10429          -99
      By-product produced (stalk) at maturity (kg[dm]/ha    5947          -99
      Leaf area index, maximum                              3.06          -99
      Harvest index at maturity                            0.434          -99
      Grain N at maturity (kg/ha)                             82          -99
      Tops N at maturity (kg/ha)                             121          -99
      Stem N at maturity (kg/ha)                              39          -99
      Grain N at maturity (%)                                1.8          -99
      Tops weight at anthesis (kg [dm]/ha)                  5122          -99
      Tops N at anthesis (kg/ha)                             103          -99
      Leaf number per stem at maturity                     19.31          -99
      Emergence day (dap)                                      6          -99


*ENVIRONMENTAL AND STRESS FACTORS

 |-----Development Phase------|--------------------------------------Environment--------------------------------------|-----------------Stress-----------------|
                              |---------------Average--------------|-----Cumulative-----|--------Count of days--------|          (0=Min, 1=Max Stress)         |
                         Time  Temp  Temp  Temp Solar Photop                Evapo    Pot TMIN TMIN TMAX TMAX TMAX RAIN|----Water----|---Nitrogen--|-Phosphorus-|
                         Span   Max   Min  Mean   Rad  [day]    CO2   Rain  Trans     ET   <    <    >    >    >    >   Photo         Photo         Photo
                         days    邂    邂    邂 MJ/m2     hr    ppm     mm     mm     mm  0邂  2邂 30邂 32邂 34邂  0mm  synth Growth  synth Growth  synth Growth
----------------------------------------------------------------------------------------------------------------------------------------------------------------
 Emergence-End Juvenile    12  30.4  18.6  24.5  17.0  24.00  363.4   35.0   34.9   56.6    0    0    6    3    0    3  0.000  0.000  0.002  0.005  0.000  0.000
 End Juvenil-Floral Init    7  30.8  18.9  24.9  15.4  24.00  363.4   46.0   15.7   29.6    0    0    6    2    0    4  0.000  0.000  0.001  0.003  0.000  0.000
 Floral Init-End Lf Grow   38  29.5  18.9  24.2  14.0  24.00  363.5  163.0  120.9  131.2    0    0   15    2    0   13  0.023  0.038  0.000  0.000  0.000  0.000
 End Lf Grth-Beg Grn Fil   10  30.4  18.4  24.4  15.4  24.00  363.7    8.0   33.3   36.6    0    0    6    1    0    3  0.098  0.225  0.000  0.000  0.000  0.000
 Grain Filling Phase       41  32.6  18.1  25.4  18.5  24.00  363.7   70.0   79.2  192.9    0    0   39   21   10    6  0.566  0.620  0.000  0.000  0.000  0.000


 Planting to Harvest      117  30.9  18.6  24.7  16.0  24.00  363.6  360.0  299.9  478.5    0    0   78   32   10   34  0.227  0.266  0.000  0.001  0.000  0.000
----------------------------------------------------------------------------------------------------------------------------------------------------------------


*Resource Productivity
 Growing season length: 117 days 

 Precipitation during growing season       360.0 mm[rain]
   Dry Matter Productivity                  2.90 kg[DM]/m3[rain]          =   29.0 kg[DM]/ha per mm[rain]
   Yield Productivity                       1.26 kg[grain yield]/m3[rain] =   12.6 kg[yield]/ha per mm[rain]

 Evapotranspiration during growing season  299.9 mm[ET]
   Dry Matter Productivity                  3.48 kg[DM]/m3[ET]            =   34.8 kg[DM]/ha per mm[ET]
   Yield Productivity                       1.51 kg[grain yield]/m3[ET]   =   15.1 kg[yield]/ha per mm[ET]

 Transpiration during growing season       168.2 mm[EP]
   Dry Matter Productivity                  6.20 kg[DM]/m3[EP]            =   62.0 kg[DM]/ha per mm[EP]
   Yield Productivity                       2.69 kg[grain yield]/m3[EP]   =   26.9 kg[yield]/ha per mm[EP]

 N applied during growing season            161. kg[N applied]/ha
   Dry Matter Productivity                  64.8 kg[DM]/kg[N applied]
   Yield Productivity                       28.1 kg[yield]/kg[N applied]

 N uptake during growing season              132 kg[N uptake]/ha
   Dry Matter Productivity                  79.0 kg[DM]/kg[N uptake]
   Yield Productivity                       34.3 kg[yield]/kg[N uptake]

--------------------------------------------------------------------------------------------------------------

                     Maize YIELD :     4531 kg/ha    [Dry weight] 

**************************************************************************************************************

*DSSAT Cropping System Model Ver. 4.6.1.000 -release      OCT 24, 2017; 10:39:40
                                                                                
*RUN   5        : P04/22                    MZCER046 ANBU1997    5              
 MODEL          : MZCER046 - Maize                                              
 EXPERIMENT     : ANBU1997 MZ  Analisis a침os de bajo rendimiento Buga          
 DATA PATH      : C:\DSSAT46\maize\                                             
 TREATMENT  5   : P04/22                    MZCER046                            
                                                                                
                                                                                
 CROP           : Maize            CULTIVAR : P30F35           ECOTYPE :IB0001  
 STARTING DATE  : MAR 23 1997                                                   
 PLANTING DATE  : APR 22 1997        PLANTS/m2 :  6.2     ROW SPACING :  80.cm  
 WEATHER        : CUNI   1997                                                   
 SOIL           : CCBUGA2017     TEXTURE : CL    -   Suelo Buga MADR Fase I     
 SOIL INITIAL C : DEPTH: 90cm EXTR. H2O: 83.9mm  NO3:  0.0kg/ha  NH4:  0.0kg/ha 
 WATER BALANCE  : RAINFED                                                       
 IRRIGATION     : NOT IRRIGATED                                                 
 NITROGEN BAL.  : SOIL-N & N-UPTAKE SIMULATION; NO N-FIXATION                   
 N-FERTILIZER   :      161 kg/ha IN     5 APPLICATIONS                          
 RESIDUE/MANURE : INITIAL :     0 kg/ha ;       0 kg/ha IN     0 APPLICATIONS   
 ENVIRONM. OPT. : DAYL=    0.00  SRAD=    0.00  TMAX=    0.00  TMIN=    0.00    
                  RAIN=    0.00  CO2 =    0.00  DEW =    0.00  WIND=    0.00    
 SIMULATION OPT : WATER   :Y  NITROGEN:Y  N-FIX:N  PHOSPH :N  PESTS  :N         
                  PHOTO   :C  ET      :R  INFIL:S  HYDROL :R  SOM    :G         
                  CO2 363ppm  NSWIT   :1  EVAP :S  SOIL   :2  STEMP  :D         
 MANAGEMENT OPT : PLANTING:R  IRRIG   :N  FERT :D  RESIDUE:R  HARVEST:M         
                  WEATHER :M  TILLAGE :N                                        
                                                                                
*SUMMARY OF SOIL AND GENETIC INPUT PARAMETERS                                   
                                                                                
   SOIL LOWER UPPER   SAT  EXTR  INIT   ROOT   BULK     pH    NO3    NH4    ORG 
  DEPTH LIMIT LIMIT    SW    SW    SW   DIST   DENS                          C  
   cm   cm3/cm3    cm3/cm3    cm3/cm3         g/cm3         ugN/g  ugN/g     %  
------------------------------------------------------------------------------- 
  0-  5 0.215 0.331 0.341 0.116 0.331   1.00   1.68   6.70   0.00   0.00   0.75 
  5- 15 0.215 0.331 0.341 0.116 0.331   1.00   1.68   6.70   0.00   0.00   0.75 
 15- 25 0.215 0.331 0.341 0.116 0.331   1.00   1.68   6.70   0.00   0.00   0.75 
 25- 35 0.181 0.291 0.364 0.110 0.291   0.50   1.61   7.20   0.00   0.00   0.53 
 35- 45 0.181 0.291 0.364 0.110 0.291   0.50   1.61   7.20   0.00   0.00   0.53 
 45- 67 0.096 0.169 0.404 0.073 0.169   0.27   1.51   7.00   0.00   0.00   0.05 
 67- 90 0.096 0.169 0.404 0.073 0.169   0.27   1.51   7.00   0.00   0.00   0.05 
                                                                                
TOT- 90  13.3  21.7  34.0   8.4  21.7  <--cm   -  kg/ha-->    0.0    0.0  51964 
SOIL ALBEDO    : 0.09      EVAPORATION LIMIT : 6.00         MIN. FACTOR  : 1.00 
RUNOFF CURVE # :76.00      DRAINAGE RATE     : 0.60         FERT. FACTOR : 1.00 
                                                                                
 Maize      CULTIVAR :CI0001-P30F35             ECOTYPE :IB0001                 
 P1     : 200.00  P2     : 0.3000  P5     : 925.00                              
 G2     : 954.00  G3     :  7.000  PHINT  : 50.000                              


*SIMULATED CROP AND SOIL STATUS AT MAIN DEVELOPMENT STAGES

 RUN NO.     5     P04/22                  

        CROP GROWTH     BIOMASS         LEAF   CROP N     STRESS      STRESS                                           
   DATE  AGE STAGE        kg/ha    LAI   NUM  kg/ha  %   H2O  Nitr Phos1 Phos2  RSTG                                   
 ------  --- ----------   -----  -----  ----  ---  ---  ----  ----  ----  ----  ----                                   
 23 MAR    0 Start Sim        0   0.00   0.0    0  0.0  0.00  0.00  0.00  0.00     7
 22 APR    0 Sowing           0   0.00   0.0    0  0.0  0.00  0.00  0.00  0.00     8
 23 APR    1 Germinate        0   0.00   0.0    0  0.0  0.00  0.00  0.00  0.00     9
 28 APR    6 Emergence       25   0.00   2.0    1  4.4  0.00  0.01  0.00  0.00     1
  9 MAY   17 End Juveni      63   0.14   6.6    2  3.7  0.00  0.00  0.00  0.00     2
 16 MAY   24 Floral Ini     184   0.36   8.9    7  3.6  0.00  0.00  0.00  0.00     3
 22 JUN   61 75% Silkin    5481   2.87  18.7  107  1.9  0.01  0.00  0.00  0.00     4
  3 JUL   72 Beg Gr Fil    7272   2.52  18.7  107  1.5  0.34  0.00  0.00  0.00     5
 12 AUG  112 End Gr Fil    9943   0.77  18.7  110  1.1  0.66  0.00  0.00  0.00     6
 15 AUG  115 Maturity      9943   0.77  18.7  110  1.1  0.83  0.00  0.00  0.00    10
 15 AUG  115 Harvest       9943   0.77  18.7  110  1.1  0.00  0.00  0.00  0.00    10


*MAIN GROWTH AND DEVELOPMENT VARIABLES

@     VARIABLE                                         SIMULATED     MEASURED
      --------                                         ---------     --------
      Anthesis day (dap)                                      61          -99
      Physiological maturity day (dap)                       115          -99
      Yield at harvest maturity (kg [dm]/ha)                3940          -99
      Number at maturity (no/m2)                            2446          -99
      Unit wt at maturity (g [dm]/unit)                   0.1611          -99
      Number at maturity (no/unit)                         394.5          -99
      Tops weight at maturity (kg [dm]/ha)                  9943          -99
      By-product produced (stalk) at maturity (kg[dm]/ha    6051          -99
      Leaf area index, maximum                              3.01          -99
      Harvest index at maturity                            0.396          -99
      Grain N at maturity (kg/ha)                             72          -99
      Tops N at maturity (kg/ha)                             110          -99
      Stem N at maturity (kg/ha)                              38          -99
      Grain N at maturity (%)                                1.8          -99
      Tops weight at anthesis (kg [dm]/ha)                  5161          -99
      Tops N at anthesis (kg/ha)                             104          -99
      Leaf number per stem at maturity                     18.71          -99
      Emergence day (dap)                                      6          -99


*ENVIRONMENTAL AND STRESS FACTORS

 |-----Development Phase------|--------------------------------------Environment--------------------------------------|-----------------Stress-----------------|
                              |---------------Average--------------|-----Cumulative-----|--------Count of days--------|          (0=Min, 1=Max Stress)         |
                         Time  Temp  Temp  Temp Solar Photop                Evapo    Pot TMIN TMIN TMAX TMAX TMAX RAIN|----Water----|---Nitrogen--|-Phosphorus-|
                         Span   Max   Min  Mean   Rad  [day]    CO2   Rain  Trans     ET   <    <    >    >    >    >   Photo         Photo         Photo
                         days    邂    邂    邂 MJ/m2     hr    ppm     mm     mm     mm  0邂  2邂 30邂 32邂 34邂  0mm  synth Growth  synth Growth  synth Growth
----------------------------------------------------------------------------------------------------------------------------------------------------------------
 Emergence-End Juvenile    11  31.7  18.4  25.0  18.0  24.00  363.4   14.0   22.3   55.5    0    0    9    5    0    2  0.000  0.000  0.002  0.005  0.000  0.000
 End Juvenil-Floral Init    7  29.6  19.1  24.4  14.2  24.00  363.4   40.0   24.6   27.1    0    0    3    0    0    5  0.000  0.000  0.000  0.001  0.000  0.000
 Floral Init-End Lf Grow   37  29.5  18.9  24.2  14.0  24.00  363.6  157.0  111.1  128.4    0    0   16    2    0   11  0.000  0.000  0.000  0.000  0.000  0.000
 End Lf Grth-Beg Grn Fil   11  30.7  17.9  24.3  16.5  24.00  363.7   25.0   36.8   43.4    0    0    7    1    0    5  0.172  0.295  0.000  0.000  0.000  0.000
 Grain Filling Phase       40  32.8  18.1  25.5  18.2  24.00  363.8   53.0   66.2  187.2    0    0   39   23   10    4  0.599  0.663  0.000  0.000  0.000  0.000


 Planting to Harvest      115  31.0  18.5  24.7  16.3  24.00  363.6  332.2  288.3  479.7    0    0   78   33   10   32  0.244  0.280  0.000  0.001  0.000  0.000
----------------------------------------------------------------------------------------------------------------------------------------------------------------


*Resource Productivity
 Growing season length: 115 days 

 Precipitation during growing season       332.2 mm[rain]
   Dry Matter Productivity                  2.99 kg[DM]/m3[rain]          =   29.9 kg[DM]/ha per mm[rain]
   Yield Productivity                       1.19 kg[grain yield]/m3[rain] =   11.9 kg[yield]/ha per mm[rain]

 Evapotranspiration during growing season  288.3 mm[ET]
   Dry Matter Productivity                  3.45 kg[DM]/m3[ET]            =   34.5 kg[DM]/ha per mm[ET]
   Yield Productivity                       1.37 kg[grain yield]/m3[ET]   =   13.7 kg[yield]/ha per mm[ET]

 Transpiration during growing season       154.4 mm[EP]
   Dry Matter Productivity                  6.44 kg[DM]/m3[EP]            =   64.4 kg[DM]/ha per mm[EP]
   Yield Productivity                       2.55 kg[grain yield]/m3[EP]   =   25.5 kg[yield]/ha per mm[EP]

 N applied during growing season            161. kg[N applied]/ha
   Dry Matter Productivity                  61.8 kg[DM]/kg[N applied]
   Yield Productivity                       24.5 kg[yield]/kg[N applied]

 N uptake during growing season              118 kg[N uptake]/ha
   Dry Matter Productivity                  84.3 kg[DM]/kg[N uptake]
   Yield Productivity                       33.4 kg[yield]/kg[N uptake]

--------------------------------------------------------------------------------------------------------------

                     Maize YIELD :     3940 kg/ha    [Dry weight] 

**************************************************************************************************************

*DSSAT Cropping System Model Ver. 4.6.1.000 -release      OCT 24, 2017; 10:39:40
                                                                                
*RUN   6        : P04/27                    MZCER046 ANBU1997    6              
 MODEL          : MZCER046 - Maize                                              
 EXPERIMENT     : ANBU1997 MZ  Analisis a침os de bajo rendimiento Buga          
 DATA PATH      : C:\DSSAT46\maize\                                             
 TREATMENT  6   : P04/27                    MZCER046                            
                                                                                
                                                                                
 CROP           : Maize            CULTIVAR : P30F35           ECOTYPE :IB0001  
 STARTING DATE  : MAR 28 1997                                                   
 PLANTING DATE  : APR 27 1997        PLANTS/m2 :  6.2     ROW SPACING :  80.cm  
 WEATHER        : CUNI   1997                                                   
 SOIL           : CCBUGA2017     TEXTURE : CL    -   Suelo Buga MADR Fase I     
 SOIL INITIAL C : DEPTH: 90cm EXTR. H2O: 83.9mm  NO3:  0.0kg/ha  NH4:  0.0kg/ha 
 WATER BALANCE  : RAINFED                                                       
 IRRIGATION     : NOT IRRIGATED                                                 
 NITROGEN BAL.  : SOIL-N & N-UPTAKE SIMULATION; NO N-FIXATION                   
 N-FERTILIZER   :      161 kg/ha IN     5 APPLICATIONS                          
 RESIDUE/MANURE : INITIAL :     0 kg/ha ;       0 kg/ha IN     0 APPLICATIONS   
 ENVIRONM. OPT. : DAYL=    0.00  SRAD=    0.00  TMAX=    0.00  TMIN=    0.00    
                  RAIN=    0.00  CO2 =    0.00  DEW =    0.00  WIND=    0.00    
 SIMULATION OPT : WATER   :Y  NITROGEN:Y  N-FIX:N  PHOSPH :N  PESTS  :N         
                  PHOTO   :C  ET      :R  INFIL:S  HYDROL :R  SOM    :G         
                  CO2 363ppm  NSWIT   :1  EVAP :S  SOIL   :2  STEMP  :D         
 MANAGEMENT OPT : PLANTING:R  IRRIG   :N  FERT :D  RESIDUE:R  HARVEST:M         
                  WEATHER :M  TILLAGE :N                                        
                                                                                
*SUMMARY OF SOIL AND GENETIC INPUT PARAMETERS                                   
                                                                                
   SOIL LOWER UPPER   SAT  EXTR  INIT   ROOT   BULK     pH    NO3    NH4    ORG 
  DEPTH LIMIT LIMIT    SW    SW    SW   DIST   DENS                          C  
   cm   cm3/cm3    cm3/cm3    cm3/cm3         g/cm3         ugN/g  ugN/g     %  
------------------------------------------------------------------------------- 
  0-  5 0.215 0.331 0.341 0.116 0.331   1.00   1.68   6.70   0.00   0.00   0.75 
  5- 15 0.215 0.331 0.341 0.116 0.331   1.00   1.68   6.70   0.00   0.00   0.75 
 15- 25 0.215 0.331 0.341 0.116 0.331   1.00   1.68   6.70   0.00   0.00   0.75 
 25- 35 0.181 0.291 0.364 0.110 0.291   0.50   1.61   7.20   0.00   0.00   0.53 
 35- 45 0.181 0.291 0.364 0.110 0.291   0.50   1.61   7.20   0.00   0.00   0.53 
 45- 67 0.096 0.169 0.404 0.073 0.169   0.27   1.51   7.00   0.00   0.00   0.05 
 67- 90 0.096 0.169 0.404 0.073 0.169   0.27   1.51   7.00   0.00   0.00   0.05 
                                                                                
TOT- 90  13.3  21.7  34.0   8.4  21.7  <--cm   -  kg/ha-->    0.0    0.0  51964 
SOIL ALBEDO    : 0.09      EVAPORATION LIMIT : 6.00         MIN. FACTOR  : 1.00 
RUNOFF CURVE # :76.00      DRAINAGE RATE     : 0.60         FERT. FACTOR : 1.00 
                                                                                
 Maize      CULTIVAR :CI0001-P30F35             ECOTYPE :IB0001                 
 P1     : 200.00  P2     : 0.3000  P5     : 925.00                              
 G2     : 954.00  G3     :  7.000  PHINT  : 50.000                              


*SIMULATED CROP AND SOIL STATUS AT MAIN DEVELOPMENT STAGES

 RUN NO.     6     P04/27                  

        CROP GROWTH     BIOMASS         LEAF   CROP N     STRESS      STRESS                                           
   DATE  AGE STAGE        kg/ha    LAI   NUM  kg/ha  %   H2O  Nitr Phos1 Phos2  RSTG                                   
 ------  --- ----------   -----  -----  ----  ---  ---  ----  ----  ----  ----  ----                                   
 28 MAR    0 Start Sim        0   0.00   0.0    0  0.0  0.00  0.00  0.00  0.00     7
 27 APR    0 Sowing           0   0.00   0.0    0  0.0  0.00  0.00  0.00  0.00     8
 28 APR    1 Germinate        0   0.00   0.0    0  0.0  0.00  0.00  0.00  0.00     9
  3 MAY    6 Emergence       25   0.00   2.0    1  4.4  0.00  0.01  0.00  0.00     1
 14 MAY   17 End Juveni      50   0.11   6.5    2  3.3  0.00  0.00  0.00  0.00     2
 21 MAY   24 Floral Ini     202   0.39   8.9    7  3.6  0.00  0.00  0.00  0.00     3
 28 JUN   62 75% Silkin    5077   2.75  18.9  103  2.0  0.07  0.00  0.00  0.00     4
  8 JUL   72 Beg Gr Fil    6207   2.11  18.9  103  1.7  0.58  0.00  0.00  0.00     5
 18 AUG  113 End Gr Fil    8701   0.62  18.9  103  1.2  0.67  0.00  0.00  0.00     6
 20 AUG  115 Maturity      8701   0.62  18.9  103  1.2  0.92  0.00  0.00  0.00    10
 20 AUG  115 Harvest       8701   0.62  18.9  103  1.2  0.00  0.00  0.00  0.00    10


*MAIN GROWTH AND DEVELOPMENT VARIABLES

@     VARIABLE                                         SIMULATED     MEASURED
      --------                                         ---------     --------
      Anthesis day (dap)                                      62          -99
      Physiological maturity day (dap)                       115          -99
      Yield at harvest maturity (kg [dm]/ha)                3387          -99
      Number at maturity (no/m2)                            1768          -99
      Unit wt at maturity (g [dm]/unit)                   0.1915          -99
      Number at maturity (no/unit)                         285.2          -99
      Tops weight at maturity (kg [dm]/ha)                  8701          -99
      By-product produced (stalk) at maturity (kg[dm]/ha    5360          -99
      Leaf area index, maximum                              2.85          -99
      Harvest index at maturity                            0.389          -99
      Grain N at maturity (kg/ha)                             62          -99
      Tops N at maturity (kg/ha)                             103          -99
      Stem N at maturity (kg/ha)                              42          -99
      Grain N at maturity (%)                                1.8          -99
      Tops weight at anthesis (kg [dm]/ha)                  5009          -99
      Tops N at anthesis (kg/ha)                             102          -99
      Leaf number per stem at maturity                     18.92          -99
      Emergence day (dap)                                      6          -99


*ENVIRONMENTAL AND STRESS FACTORS

 |-----Development Phase------|--------------------------------------Environment--------------------------------------|-----------------Stress-----------------|
                              |---------------Average--------------|-----Cumulative-----|--------Count of days--------|          (0=Min, 1=Max Stress)         |
                         Time  Temp  Temp  Temp Solar Photop                Evapo    Pot TMIN TMIN TMAX TMAX TMAX RAIN|----Water----|---Nitrogen--|-Phosphorus-|
                         Span   Max   Min  Mean   Rad  [day]    CO2   Rain  Trans     ET   <    <    >    >    >    >   Photo         Photo         Photo
                         days    邂    邂    邂 MJ/m2     hr    ppm     mm     mm     mm  0邂  2邂 30邂 32邂 34邂  0mm  synth Growth  synth Growth  synth Growth
----------------------------------------------------------------------------------------------------------------------------------------------------------------
 Emergence-End Juvenile    11  30.8  18.7  24.7  16.0  24.00  363.4   53.0   28.9   49.0    0    0    8    3    0    6  0.000  0.000  0.002  0.004  0.000  0.000
 End Juvenil-Floral Init    7  30.7  18.9  24.8  15.1  24.00  363.5    1.0   14.0   28.9    0    0    5    1    0    1  0.000  0.000  0.000  0.001  0.000  0.000
 Floral Init-End Lf Grow   38  29.4  18.8  24.1  13.9  24.00  363.6  165.0  115.6  130.7    0    0   14    2    0   14  0.014  0.045  0.000  0.000  0.000  0.000
 End Lf Grth-Beg Grn Fil   10  31.4  17.7  24.6  19.4  24.00  363.7   17.0   26.3   46.6    0    0    9    2    0    2  0.514  0.576  0.000  0.000  0.000  0.000
 Grain Filling Phase       41  32.9  18.2  25.5  18.0  24.00  363.8   55.2   64.4  191.1    0    0   40   26   10    6  0.600  0.666  0.000  0.000  0.000  0.000


 Planting to Harvest      115  31.2  18.5  24.8  16.4  24.00  363.6  291.2  265.0  487.0    0    0   82   37   11   29  0.279  0.319  0.000  0.000  0.000  0.000
----------------------------------------------------------------------------------------------------------------------------------------------------------------


*Resource Productivity
 Growing season length: 115 days 

 Precipitation during growing season       291.2 mm[rain]
   Dry Matter Productivity                  2.99 kg[DM]/m3[rain]          =   29.9 kg[DM]/ha per mm[rain]
   Yield Productivity                       1.16 kg[grain yield]/m3[rain] =   11.6 kg[yield]/ha per mm[rain]

 Evapotranspiration during growing season  265.0 mm[ET]
   Dry Matter Productivity                  3.28 kg[DM]/m3[ET]            =   32.8 kg[DM]/ha per mm[ET]
   Yield Productivity                       1.28 kg[grain yield]/m3[ET]   =   12.8 kg[yield]/ha per mm[ET]

 Transpiration during growing season       139.5 mm[EP]
   Dry Matter Productivity                  6.24 kg[DM]/m3[EP]            =   62.4 kg[DM]/ha per mm[EP]
   Yield Productivity                       2.43 kg[grain yield]/m3[EP]   =   24.3 kg[yield]/ha per mm[EP]

 N applied during growing season            161. kg[N applied]/ha
   Dry Matter Productivity                  54.0 kg[DM]/kg[N applied]
   Yield Productivity                       21.0 kg[yield]/kg[N applied]

 N uptake during growing season              112 kg[N uptake]/ha
   Dry Matter Productivity                  77.7 kg[DM]/kg[N uptake]
   Yield Productivity                       30.2 kg[yield]/kg[N uptake]

--------------------------------------------------------------------------------------------------------------

                     Maize YIELD :     3387 kg/ha    [Dry weight] 

**************************************************************************************************************

*DSSAT Cropping System Model Ver. 4.6.1.000 -release      OCT 24, 2017; 10:39:40
                                                                                
*RUN   7        : P05/02                    MZCER046 ANBU1997    7              
 MODEL          : MZCER046 - Maize                                              
 EXPERIMENT     : ANBU1997 MZ  Analisis a침os de bajo rendimiento Buga          
 DATA PATH      : C:\DSSAT46\maize\                                             
 TREATMENT  7   : P05/02                    MZCER046                            
                                                                                
                                                                                
 CROP           : Maize            CULTIVAR : P30F35           ECOTYPE :IB0001  
 STARTING DATE  : APR  2 1997                                                   
 PLANTING DATE  : MAY  2 1997        PLANTS/m2 :  6.2     ROW SPACING :  80.cm  
 WEATHER        : CUNI   1997                                                   
 SOIL           : CCBUGA2017     TEXTURE : CL    -   Suelo Buga MADR Fase I     
 SOIL INITIAL C : DEPTH: 90cm EXTR. H2O: 83.9mm  NO3:  0.0kg/ha  NH4:  0.0kg/ha 
 WATER BALANCE  : RAINFED                                                       
 IRRIGATION     : NOT IRRIGATED                                                 
 NITROGEN BAL.  : SOIL-N & N-UPTAKE SIMULATION; NO N-FIXATION                   
 N-FERTILIZER   :      161 kg/ha IN     5 APPLICATIONS                          
 RESIDUE/MANURE : INITIAL :     0 kg/ha ;       0 kg/ha IN     0 APPLICATIONS   
 ENVIRONM. OPT. : DAYL=    0.00  SRAD=    0.00  TMAX=    0.00  TMIN=    0.00    
                  RAIN=    0.00  CO2 =    0.00  DEW =    0.00  WIND=    0.00    
 SIMULATION OPT : WATER   :Y  NITROGEN:Y  N-FIX:N  PHOSPH :N  PESTS  :N         
                  PHOTO   :C  ET      :R  INFIL:S  HYDROL :R  SOM    :G         
                  CO2 363ppm  NSWIT   :1  EVAP :S  SOIL   :2  STEMP  :D         
 MANAGEMENT OPT : PLANTING:R  IRRIG   :N  FERT :D  RESIDUE:R  HARVEST:M         
                  WEATHER :M  TILLAGE :N                                        
                                                                                
*SUMMARY OF SOIL AND GENETIC INPUT PARAMETERS                                   
                                                                                
   SOIL LOWER UPPER   SAT  EXTR  INIT   ROOT   BULK     pH    NO3    NH4    ORG 
  DEPTH LIMIT LIMIT    SW    SW    SW   DIST   DENS                          C  
   cm   cm3/cm3    cm3/cm3    cm3/cm3         g/cm3         ugN/g  ugN/g     %  
------------------------------------------------------------------------------- 
  0-  5 0.215 0.331 0.341 0.116 0.331   1.00   1.68   6.70   0.00   0.00   0.75 
  5- 15 0.215 0.331 0.341 0.116 0.331   1.00   1.68   6.70   0.00   0.00   0.75 
 15- 25 0.215 0.331 0.341 0.116 0.331   1.00   1.68   6.70   0.00   0.00   0.75 
 25- 35 0.181 0.291 0.364 0.110 0.291   0.50   1.61   7.20   0.00   0.00   0.53 
 35- 45 0.181 0.291 0.364 0.110 0.291   0.50   1.61   7.20   0.00   0.00   0.53 
 45- 67 0.096 0.169 0.404 0.073 0.169   0.27   1.51   7.00   0.00   0.00   0.05 
 67- 90 0.096 0.169 0.404 0.073 0.169   0.27   1.51   7.00   0.00   0.00   0.05 
                                                                                
TOT- 90  13.3  21.7  34.0   8.4  21.7  <--cm   -  kg/ha-->    0.0    0.0  51964 
SOIL ALBEDO    : 0.09      EVAPORATION LIMIT : 6.00         MIN. FACTOR  : 1.00 
RUNOFF CURVE # :76.00      DRAINAGE RATE     : 0.60         FERT. FACTOR : 1.00 
                                                                                
 Maize      CULTIVAR :CI0001-P30F35             ECOTYPE :IB0001                 
 P1     : 200.00  P2     : 0.3000  P5     : 925.00                              
 G2     : 954.00  G3     :  7.000  PHINT  : 50.000                              


*SIMULATED CROP AND SOIL STATUS AT MAIN DEVELOPMENT STAGES

 RUN NO.     7     P05/02                  

        CROP GROWTH     BIOMASS         LEAF   CROP N     STRESS      STRESS                                           
   DATE  AGE STAGE        kg/ha    LAI   NUM  kg/ha  %   H2O  Nitr Phos1 Phos2  RSTG                                   
 ------  --- ----------   -----  -----  ----  ---  ---  ----  ----  ----  ----  ----                                   
  2 APR    0 Start Sim        0   0.00   0.0    0  0.0  0.00  0.00  0.00  0.00     7
  2 MAY    0 Sowing           0   0.00   0.0    0  0.0  0.00  0.00  0.00  0.00     8
  3 MAY    1 Germinate        0   0.00   0.0    0  0.0  0.00  0.00  0.00  0.00     9
  8 MAY    6 Emergence       25   0.00   2.1    1  4.4  0.00  0.01  0.00  0.00     1
 19 MAY   17 End Juveni      59   0.13   6.4    2  3.3  0.00  0.00  0.00  0.00     2
 26 MAY   24 Floral Ini     190   0.37   8.9    7  3.6  0.00  0.00  0.00  0.00     3
  3 JUL   62 75% Silkin    4482   2.27  18.8   92  2.0  0.13  0.00  0.00  0.00     4
 13 JUL   72 Beg Gr Fil    4689   1.52  18.8   92  2.0  0.86  0.00  0.00  0.00     5
 22 AUG  112 End Gr Fil    6349   0.59  18.8   92  1.4  0.59  0.00  0.00  0.00     6
 25 AUG  115 Maturity      6349   0.59  18.8   92  1.4  0.91  0.00  0.00  0.00    10
 25 AUG  115 Harvest       6349   0.59  18.8   92  1.4  0.00  0.00  0.00  0.00    10


*MAIN GROWTH AND DEVELOPMENT VARIABLES

@     VARIABLE                                         SIMULATED     MEASURED
      --------                                         ---------     --------
      Anthesis day (dap)                                      62          -99
      Physiological maturity day (dap)                       115          -99
      Yield at harvest maturity (kg [dm]/ha)                1731          -99
      Number at maturity (no/m2)                             849          -99
      Unit wt at maturity (g [dm]/unit)                   0.2038          -99
      Number at maturity (no/unit)                         138.4          -99
      Tops weight at maturity (kg [dm]/ha)                  6349          -99
      By-product produced (stalk) at maturity (kg[dm]/ha    4661          -99
      Leaf area index, maximum                              2.35          -99
      Harvest index at maturity                            0.273          -99
      Grain N at maturity (kg/ha)                             31          -99
      Tops N at maturity (kg/ha)                              92          -99
      Stem N at maturity (kg/ha)                              60          -99
      Grain N at maturity (%)                                1.8          -99
      Tops weight at anthesis (kg [dm]/ha)                  4415          -99
      Tops N at anthesis (kg/ha)                              88          -99
      Leaf number per stem at maturity                     18.83          -99
      Emergence day (dap)                                      6          -99


*ENVIRONMENTAL AND STRESS FACTORS

 |-----Development Phase------|--------------------------------------Environment--------------------------------------|-----------------Stress-----------------|
                              |---------------Average--------------|-----Cumulative-----|--------Count of days--------|          (0=Min, 1=Max Stress)         |
                         Time  Temp  Temp  Temp Solar Photop                Evapo    Pot TMIN TMIN TMAX TMAX TMAX RAIN|----Water----|---Nitrogen--|-Phosphorus-|
                         Span   Max   Min  Mean   Rad  [day]    CO2   Rain  Trans     ET   <    <    >    >    >    >   Photo         Photo         Photo
                         days    邂    邂    邂 MJ/m2     hr    ppm     mm     mm     mm  0邂  2邂 30邂 32邂 34邂  0mm  synth Growth  synth Growth  synth Growth
----------------------------------------------------------------------------------------------------------------------------------------------------------------
 Emergence-End Juvenile    11  30.4  18.8  24.6  15.9  24.00  363.5   40.0   34.1   48.9    0    0    7    2    0    5  0.000  0.000  0.002  0.004  0.000  0.000
 End Juvenil-Floral Init    7  30.8  19.6  25.2  14.3  24.00  363.5   14.0   13.2   27.5    0    0    5    1    0    2  0.000  0.000  0.000  0.001  0.000  0.000
 Floral Init-End Lf Grow   38  29.4  18.5  24.0  14.4  24.00  363.6  168.0  119.4  135.6    0    0   15    1    0   14  0.066  0.113  0.000  0.000  0.000  0.000
 End Lf Grth-Beg Grn Fil   10  31.5  18.3  24.9  18.3  24.00  363.7    0.0   13.6   44.9    0    0    9    2    0    0  0.769  0.846  0.000  0.000  0.000  0.000
 Grain Filling Phase       40  33.3  18.1  25.7  18.5  24.00  363.8   55.2   73.7  192.8    0    0   40   29   13    6  0.489  0.591  0.000  0.000  0.000  0.000


 Planting to Harvest      115  31.3  18.4  24.9  16.5  24.00  363.7  291.2  261.3  490.5    0    0   84   40   14   29  0.281  0.340  0.000  0.000  0.000  0.000
----------------------------------------------------------------------------------------------------------------------------------------------------------------


*Resource Productivity
 Growing season length: 115 days 

 Precipitation during growing season       291.2 mm[rain]
   Dry Matter Productivity                  2.18 kg[DM]/m3[rain]          =   21.8 kg[DM]/ha per mm[rain]
   Yield Productivity                       0.59 kg[grain yield]/m3[rain] =    5.9 kg[yield]/ha per mm[rain]

 Evapotranspiration during growing season  261.3 mm[ET]
   Dry Matter Productivity                  2.43 kg[DM]/m3[ET]            =   24.3 kg[DM]/ha per mm[ET]
   Yield Productivity                       0.66 kg[grain yield]/m3[ET]   =    6.6 kg[yield]/ha per mm[ET]

 Transpiration during growing season       134.3 mm[EP]
   Dry Matter Productivity                  4.73 kg[DM]/m3[EP]            =   47.3 kg[DM]/ha per mm[EP]
   Yield Productivity                       1.29 kg[grain yield]/m3[EP]   =   12.9 kg[yield]/ha per mm[EP]

 N applied during growing season            161. kg[N applied]/ha
   Dry Matter Productivity                  39.4 kg[DM]/kg[N applied]
   Yield Productivity                       10.8 kg[yield]/kg[N applied]

 N uptake during growing season              102 kg[N uptake]/ha
   Dry Matter Productivity                  62.2 kg[DM]/kg[N uptake]
   Yield Productivity                       17.0 kg[yield]/kg[N uptake]

--------------------------------------------------------------------------------------------------------------

                     Maize YIELD :     1731 kg/ha    [Dry weight] 

**************************************************************************************************************

*DSSAT Cropping System Model Ver. 4.6.1.000 -release      OCT 24, 2017; 10:39:40
                                                                                
*RUN   8        : P05/07                    MZCER046 ANBU1997    8              
 MODEL          : MZCER046 - Maize                                              
 EXPERIMENT     : ANBU1997 MZ  Analisis a침os de bajo rendimiento Buga          
 DATA PATH      : C:\DSSAT46\maize\                                             
 TREATMENT  8   : P05/07                    MZCER046                            
                                                                                
                                                                                
 CROP           : Maize            CULTIVAR : P30F35           ECOTYPE :IB0001  
 STARTING DATE  : APR  7 1997                                                   
 PLANTING DATE  : MAY  7 1997        PLANTS/m2 :  6.2     ROW SPACING :  80.cm  
 WEATHER        : CUNI   1997                                                   
 SOIL           : CCBUGA2017     TEXTURE : CL    -   Suelo Buga MADR Fase I     
 SOIL INITIAL C : DEPTH: 90cm EXTR. H2O: 83.9mm  NO3:  0.0kg/ha  NH4:  0.0kg/ha 
 WATER BALANCE  : RAINFED                                                       
 IRRIGATION     : NOT IRRIGATED                                                 
 NITROGEN BAL.  : SOIL-N & N-UPTAKE SIMULATION; NO N-FIXATION                   
 N-FERTILIZER   :      161 kg/ha IN     5 APPLICATIONS                          
 RESIDUE/MANURE : INITIAL :     0 kg/ha ;       0 kg/ha IN     0 APPLICATIONS   
 ENVIRONM. OPT. : DAYL=    0.00  SRAD=    0.00  TMAX=    0.00  TMIN=    0.00    
                  RAIN=    0.00  CO2 =    0.00  DEW =    0.00  WIND=    0.00    
 SIMULATION OPT : WATER   :Y  NITROGEN:Y  N-FIX:N  PHOSPH :N  PESTS  :N         
                  PHOTO   :C  ET      :R  INFIL:S  HYDROL :R  SOM    :G         
                  CO2 363ppm  NSWIT   :1  EVAP :S  SOIL   :2  STEMP  :D         
 MANAGEMENT OPT : PLANTING:R  IRRIG   :N  FERT :D  RESIDUE:R  HARVEST:M         
                  WEATHER :M  TILLAGE :N                                        
                                                                                
*SUMMARY OF SOIL AND GENETIC INPUT PARAMETERS                                   
                                                                                
   SOIL LOWER UPPER   SAT  EXTR  INIT   ROOT   BULK     pH    NO3    NH4    ORG 
  DEPTH LIMIT LIMIT    SW    SW    SW   DIST   DENS                          C  
   cm   cm3/cm3    cm3/cm3    cm3/cm3         g/cm3         ugN/g  ugN/g     %  
------------------------------------------------------------------------------- 
  0-  5 0.215 0.331 0.341 0.116 0.331   1.00   1.68   6.70   0.00   0.00   0.75 
  5- 15 0.215 0.331 0.341 0.116 0.331   1.00   1.68   6.70   0.00   0.00   0.75 
 15- 25 0.215 0.331 0.341 0.116 0.331   1.00   1.68   6.70   0.00   0.00   0.75 
 25- 35 0.181 0.291 0.364 0.110 0.291   0.50   1.61   7.20   0.00   0.00   0.53 
 35- 45 0.181 0.291 0.364 0.110 0.291   0.50   1.61   7.20   0.00   0.00   0.53 
 45- 67 0.096 0.169 0.404 0.073 0.169   0.27   1.51   7.00   0.00   0.00   0.05 
 67- 90 0.096 0.169 0.404 0.073 0.169   0.27   1.51   7.00   0.00   0.00   0.05 
                                                                                
TOT- 90  13.3  21.7  34.0   8.4  21.7  <--cm   -  kg/ha-->    0.0    0.0  51964 
SOIL ALBEDO    : 0.09      EVAPORATION LIMIT : 6.00         MIN. FACTOR  : 1.00 
RUNOFF CURVE # :76.00      DRAINAGE RATE     : 0.60         FERT. FACTOR : 1.00 
                                                                                
 Maize      CULTIVAR :CI0001-P30F35             ECOTYPE :IB0001                 
 P1     : 200.00  P2     : 0.3000  P5     : 925.00                              
 G2     : 954.00  G3     :  7.000  PHINT  : 50.000                              


*SIMULATED CROP AND SOIL STATUS AT MAIN DEVELOPMENT STAGES

 RUN NO.     8     P05/07                  

        CROP GROWTH     BIOMASS         LEAF   CROP N     STRESS      STRESS                                           
   DATE  AGE STAGE        kg/ha    LAI   NUM  kg/ha  %   H2O  Nitr Phos1 Phos2  RSTG                                   
 ------  --- ----------   -----  -----  ----  ---  ---  ----  ----  ----  ----  ----                                   
  7 APR    0 Start Sim        0   0.00   0.0    0  0.0  0.00  0.00  0.00  0.00     7
  7 MAY    0 Sowing           0   0.00   0.0    0  0.0  0.00  0.00  0.00  0.00     8
  8 MAY    1 Germinate        0   0.00   0.0    0  0.0  0.00  0.00  0.00  0.00     9
 13 MAY    6 Emergence       25   0.00   2.0    1  4.4  0.00  0.01  0.00  0.00     1
 24 MAY   17 End Juveni      56   0.12   6.5    2  3.3  0.00  0.00  0.00  0.00     2
 31 MAY   24 Floral Ini     162   0.33   8.8    6  3.6  0.00  0.00  0.00  0.00     3
  7 JUL   61 75% Silkin    3863   1.85  18.5   83  2.2  0.22  0.00  0.00  0.00     4
 17 JUL   71 Beg Gr Fil    4159   1.29  18.5   83  2.0  0.80  0.00  0.00  0.00     5
 26 AUG  111 End Gr Fil    5747   0.46  18.5   83  1.4  0.61  0.00  0.00  0.00     6
 29 AUG  114 Maturity      5747   0.46  18.5   83  1.4  0.90  0.00  0.00  0.00    10
[...]
 NITROGEN BAL.  : SOIL-N & N-UPTAKE SIMULATION; NO N-FIXATION                   
 N-FERTILIZER   :      161 kg/ha IN     5 APPLICATIONS                          
 RESIDUE/MANURE : INITIAL :     0 kg/ha ;       0 kg/ha IN     0 APPLICATIONS   
 ENVIRONM. OPT. : DAYL=    0.00  SRAD=    0.00  TMAX=    0.00  TMIN=    0.00    
                  RAIN=    0.00  CO2 =    0.00  DEW =    0.00  WIND=    0.00    
 SIMULATION OPT : WATER   :Y  NITROGEN:Y  N-FIX:N  PHOSPH :N  PESTS  :N         
                  PHOTO   :C  ET      :R  INFIL:S  HYDROL :R  SOM    :G         
                  CO2 364ppm  NSWIT   :1  EVAP :S  SOIL   :2  STEMP  :D         
 MANAGEMENT OPT : PLANTING:R  IRRIG   :N  FERT :D  RESIDUE:R  HARVEST:M         
                  WEATHER :M  TILLAGE :N                                        
                                                                                
*SUMMARY OF SOIL AND GENETIC INPUT PARAMETERS                                   
                                                                                
   SOIL LOWER UPPER   SAT  EXTR  INIT   ROOT   BULK     pH    NO3    NH4    ORG 
  DEPTH LIMIT LIMIT    SW    SW    SW   DIST   DENS                          C  
   cm   cm3/cm3    cm3/cm3    cm3/cm3         g/cm3         ugN/g  ugN/g     %  
------------------------------------------------------------------------------- 
  0-  5 0.215 0.331 0.341 0.116 0.331   1.00   1.68   6.70   0.00   0.00   0.75 
  5- 15 0.215 0.331 0.341 0.116 0.331   1.00   1.68   6.70   0.00   0.00   0.75 
 15- 25 0.215 0.331 0.341 0.116 0.331   1.00   1.68   6.70   0.00   0.00   0.75 
 25- 35 0.181 0.291 0.364 0.110 0.291   0.50   1.61   7.20   0.00   0.00   0.53 
 35- 45 0.181 0.291 0.364 0.110 0.291   0.50   1.61   7.20   0.00   0.00   0.53 
 45- 67 0.096 0.169 0.404 0.073 0.169   0.27   1.51   7.00   0.00   0.00   0.05 
 67- 90 0.096 0.169 0.404 0.073 0.169   0.27   1.51   7.00   0.00   0.00   0.05 
                                                                                
TOT- 90  13.3  21.7  34.0   8.4  21.7  <--cm   -  kg/ha-->    0.0    0.0  51964 
SOIL ALBEDO    : 0.09      EVAPORATION LIMIT : 6.00         MIN. FACTOR  : 1.00 
RUNOFF CURVE # :76.00      DRAINAGE RATE     : 0.60         FERT. FACTOR : 1.00 
                                                                                
 Maize      CULTIVAR :CI0001-P30F35             ECOTYPE :IB0001                 
 P1     : 200.00  P2     : 0.3000  P5     : 925.00                              
 G2     : 954.00  G3     :  7.000  PHINT  : 50.000                              


*SIMULATED CROP AND SOIL STATUS AT MAIN DEVELOPMENT STAGES

 RUN NO.    35     P12/14                  

        CROP GROWTH     BIOMASS         LEAF   CROP N     STRESS      STRESS                                           
   DATE  AGE STAGE        kg/ha    LAI   NUM  kg/ha  %   H2O  Nitr Phos1 Phos2  RSTG                                   
 ------  --- ----------   -----  -----  ----  ---  ---  ----  ----  ----  ----  ----                                   
 14 NOV    0 Start Sim        0   0.00   0.0    0  0.0  0.00  0.00  0.00  0.00     7
 14 DEC    0 Sowing           0   0.00   0.0    0  0.0  0.00  0.00  0.00  0.00     8
 15 DEC    1 Germinate        0   0.00   0.0    0  0.0  0.00  0.00  0.00  0.00     9
 20 DEC    6 Emergence       25   0.00   2.1    1  4.4  0.00  0.01  0.00  0.00     1
 30 DEC   16 End Juveni      66   0.14   6.3    2  3.3  0.00  0.00  0.00  0.00     2
  3 JAN   20 Floral Ini     136   0.28   7.9    5  3.7  0.20  0.00  0.00  0.00     3
  3 FEB   51 75% Silkin    2050   0.93  16.7   25  1.2  0.47  0.25  0.00  0.00     4
 12 FEB   60 Beg Gr Fil    2371   0.80  16.7   42  1.8  0.42  0.21  0.00  0.00     5
 24 MAR  100 End Gr Fil    3483   0.24  16.7   44  1.3  0.69  0.00  0.00  0.00     6
 26 MAR  102 Maturity      3483   0.24  16.7   44  1.3  0.95  0.00  0.00  0.00    10
 26 MAR  102 Harvest       3483   0.24  16.7   44  1.3  0.00  0.00  0.00  0.00    10


*MAIN GROWTH AND DEVELOPMENT VARIABLES

@     VARIABLE                                         SIMULATED     MEASURED
      --------                                         ---------     --------
      Anthesis day (dap)                                      51          -99
      Physiological maturity day (dap)                       102          -99
      Yield at harvest maturity (kg [dm]/ha)                1461          -99
      Number at maturity (no/m2)                             803          -99
      Unit wt at maturity (g [dm]/unit)                   0.1820          -99
      Number at maturity (no/unit)                         132.7          -99
      Tops weight at maturity (kg [dm]/ha)                  3483          -99
      By-product produced (stalk) at maturity (kg[dm]/ha    2048          -99
      Leaf area index, maximum                              1.25          -99
      Harvest index at maturity                            0.419          -99
      Grain N at maturity (kg/ha)                             27          -99
      Tops N at maturity (kg/ha)                              44          -99
      Stem N at maturity (kg/ha)                              17          -99
      Grain N at maturity (%)                                1.8          -99
      Tops weight at anthesis (kg [dm]/ha)                  2024          -99
      Tops N at anthesis (kg/ha)                              25          -99
      Leaf number per stem at maturity                     16.70          -99
      Emergence day (dap)                                      6          -99


*ENVIRONMENTAL AND STRESS FACTORS

 |-----Development Phase------|--------------------------------------Environment--------------------------------------|-----------------Stress-----------------|
                              |---------------Average--------------|-----Cumulative-----|--------Count of days--------|          (0=Min, 1=Max Stress)         |
                         Time  Temp  Temp  Temp Solar Photop                Evapo    Pot TMIN TMIN TMAX TMAX TMAX RAIN|----Water----|---Nitrogen--|-Phosphorus-|
                         Span   Max   Min  Mean   Rad  [day]    CO2   Rain  Trans     ET   <    <    >    >    >    >   Photo         Photo         Photo
                         days    邂    邂    邂 MJ/m2     hr    ppm     mm     mm     mm  0邂  2邂 30邂 32邂 34邂  0mm  synth Growth  synth Growth  synth Growth
----------------------------------------------------------------------------------------------------------------------------------------------------------------
 Emergence-End Juvenile    10  32.9  18.1  25.5  17.3   0.00  364.9    9.0    5.7   48.2    0    0   10    8    0    1  0.000  0.001  0.002  0.004  0.000  0.000
 End Juvenil-Floral Init    4  33.0  18.4  25.6  18.0   0.00  364.9    0.0    6.1   20.1    0    0    4    2    0    0  0.015  0.167  0.000  0.001  0.000  0.000
 Floral Init-End Lf Grow   31  33.5  18.9  26.2  19.3   0.00  365.1   11.0   58.5  158.6    0    0   29   26   10    2  0.358  0.451  0.093  0.232  0.000  0.000
 End Lf Grth-Beg Grn Fil    9  32.2  19.4  25.8  13.2   0.00  365.2   24.0   14.2   31.3    0    0    7    6    1    4  0.411  0.497  0.104  0.260  0.000  0.000
 Grain Filling Phase       40  32.6  19.2  25.9  17.7   4.73  365.5   39.3   55.3  191.1    0    0   34   29    5    8  0.595  0.665  0.000  0.000  0.000  0.000


 Planting to Harvest      102  32.8  19.0  25.9  17.7   2.10  365.2   86.3  143.9  487.1    0    0   90   74   16   16  0.397  0.467  0.038  0.094  0.000  0.000
----------------------------------------------------------------------------------------------------------------------------------------------------------------


*Resource Productivity
 Growing season length: 102 days 

 Precipitation during growing season        86.3 mm[rain]
   Dry Matter Productivity                  4.04 kg[DM]/m3[rain]          =   40.4 kg[DM]/ha per mm[rain]
   Yield Productivity                       1.69 kg[grain yield]/m3[rain] =   16.9 kg[yield]/ha per mm[rain]

 Evapotranspiration during growing season  143.9 mm[ET]
   Dry Matter Productivity                  2.42 kg[DM]/m3[ET]            =   24.2 kg[DM]/ha per mm[ET]
   Yield Productivity                       1.02 kg[grain yield]/m3[ET]   =   10.2 kg[yield]/ha per mm[ET]

 Transpiration during growing season        76.3 mm[EP]
   Dry Matter Productivity                  4.57 kg[DM]/m3[EP]            =   45.7 kg[DM]/ha per mm[EP]
   Yield Productivity                       1.91 kg[grain yield]/m3[EP]   =   19.1 kg[yield]/ha per mm[EP]

 N applied during growing season            161. kg[N applied]/ha
   Dry Matter Productivity                  21.6 kg[DM]/kg[N applied]
   Yield Productivity                        9.1 kg[yield]/kg[N applied]

 N uptake during growing season               50 kg[N uptake]/ha
   Dry Matter Productivity                  69.7 kg[DM]/kg[N uptake]
   Yield Productivity                       29.2 kg[yield]/kg[N uptake]

--------------------------------------------------------------------------------------------------------------

                     Maize YIELD :     1461 kg/ha    [Dry weight] 

**************************************************************************************************************

*DSSAT Cropping System Model Ver. 4.6.1.000 -release      OCT 24, 2017; 10:39:52
                                                                                
*RUN  36        : P12/19                    MZCER046 ANBU1997   36              
 MODEL          : MZCER046 - Maize                                              
 EXPERIMENT     : ANBU1997 MZ  Analisis a침os de bajo rendimiento Buga          
 DATA PATH      : C:\DSSAT46\maize\                                             
 TREATMENT 36   : P12/19                    MZCER046                            
                                                                                
                                                                                
 CROP           : Maize            CULTIVAR : P30F35           ECOTYPE :IB0001  
 STARTING DATE  : NOV 19 1997                                                   
 PLANTING DATE  : DEC 19 1997        PLANTS/m2 :  6.2     ROW SPACING :  80.cm  
 WEATHER        : CUNI   1997                                                   
 SOIL           : CCBUGA2017     TEXTURE : CL    -   Suelo Buga MADR Fase I     
 SOIL INITIAL C : DEPTH: 90cm EXTR. H2O: 83.9mm  NO3:  0.0kg/ha  NH4:  0.0kg/ha 
 WATER BALANCE  : RAINFED                                                       
 IRRIGATION     : NOT IRRIGATED                                                 
 NITROGEN BAL.  : SOIL-N & N-UPTAKE SIMULATION; NO N-FIXATION                   
 N-FERTILIZER   :      161 kg/ha IN     5 APPLICATIONS                          
 RESIDUE/MANURE : INITIAL :     0 kg/ha ;       0 kg/ha IN     0 APPLICATIONS   
 ENVIRONM. OPT. : DAYL=    0.00  SRAD=    0.00  TMAX=    0.00  TMIN=    0.00    
                  RAIN=    0.00  CO2 =    0.00  DEW =    0.00  WIND=    0.00    
 SIMULATION OPT : WATER   :Y  NITROGEN:Y  N-FIX:N  PHOSPH :N  PESTS  :N         
                  PHOTO   :C  ET      :R  INFIL:S  HYDROL :R  SOM    :G         
                  CO2 365ppm  NSWIT   :1  EVAP :S  SOIL   :2  STEMP  :D         
 MANAGEMENT OPT : PLANTING:R  IRRIG   :N  FERT :D  RESIDUE:R  HARVEST:M         
                  WEATHER :M  TILLAGE :N                                        
                                                                                
*SUMMARY OF SOIL AND GENETIC INPUT PARAMETERS                                   
                                                                                
   SOIL LOWER UPPER   SAT  EXTR  INIT   ROOT   BULK     pH    NO3    NH4    ORG 
  DEPTH LIMIT LIMIT    SW    SW    SW   DIST   DENS                          C  
   cm   cm3/cm3    cm3/cm3    cm3/cm3         g/cm3         ugN/g  ugN/g     %  
------------------------------------------------------------------------------- 
  0-  5 0.215 0.331 0.341 0.116 0.331   1.00   1.68   6.70   0.00   0.00   0.75 
  5- 15 0.215 0.331 0.341 0.116 0.331   1.00   1.68   6.70   0.00   0.00   0.75 
 15- 25 0.215 0.331 0.341 0.116 0.331   1.00   1.68   6.70   0.00   0.00   0.75 
 25- 35 0.181 0.291 0.364 0.110 0.291   0.50   1.61   7.20   0.00   0.00   0.53 
 35- 45 0.181 0.291 0.364 0.110 0.291   0.50   1.61   7.20   0.00   0.00   0.53 
 45- 67 0.096 0.169 0.404 0.073 0.169   0.27   1.51   7.00   0.00   0.00   0.05 
 67- 90 0.096 0.169 0.404 0.073 0.169   0.27   1.51   7.00   0.00   0.00   0.05 
                                                                                
TOT- 90  13.3  21.7  34.0   8.4  21.7  <--cm   -  kg/ha-->    0.0    0.0  51964 
SOIL ALBEDO    : 0.09      EVAPORATION LIMIT : 6.00         MIN. FACTOR  : 1.00 
RUNOFF CURVE # :76.00      DRAINAGE RATE     : 0.60         FERT. FACTOR : 1.00 
                                                                                
 Maize      CULTIVAR :CI0001-P30F35             ECOTYPE :IB0001                 
 P1     : 200.00  P2     : 0.3000  P5     : 925.00                              
 G2     : 954.00  G3     :  7.000  PHINT  : 50.000                              


*SIMULATED CROP AND SOIL STATUS AT MAIN DEVELOPMENT STAGES

 RUN NO.    36     P12/19                  

        CROP GROWTH     BIOMASS         LEAF   CROP N     STRESS      STRESS                                           
   DATE  AGE STAGE        kg/ha    LAI   NUM  kg/ha  %   H2O  Nitr Phos1 Phos2  RSTG                                   
 ------  --- ----------   -----  -----  ----  ---  ---  ----  ----  ----  ----  ----                                   
 19 NOV    0 Start Sim        0   0.00   0.0    0  0.0  0.00  0.00  0.00  0.00     7
 19 DEC    0 Sowing           0   0.00   0.0    0  0.0  0.00  0.00  0.00  0.00     8
 20 DEC    1 Germinate        0   0.00   0.0    0  0.0  0.00  0.00  0.00  0.00     9
 25 DEC    6 Emergence       25   0.00   2.0    1  4.4  0.00  0.01  0.00  0.00     1
  4 JAN   16 End Juveni      63   0.14   6.4    2  3.3  0.06  0.00  0.00  0.00     2
  8 JAN   20 Floral Ini     126   0.26   7.9    5  3.7  0.11  0.00  0.00  0.00     3
  7 FEB   50 75% Silkin    2016   0.95  16.9   45  2.2  0.49  0.38  0.00  0.00     4
 17 FEB   60 Beg Gr Fil    2954   0.93  16.9   45  1.5  0.10  0.00  0.00  0.00     5
 29 MAR  100 End Gr Fil    4104   0.24  16.9   49  1.2  0.74  0.00  0.00  0.00     6
  1 APR  103 Maturity      4104   0.24  16.9   49  1.2  0.00  0.00  0.00  0.00    10
  1 APR  103 Harvest       4104   0.24  16.9   49  1.2  0.00  0.00  0.00  0.00    10


*MAIN GROWTH AND DEVELOPMENT VARIABLES

@     VARIABLE                                         SIMULATED     MEASURED
      --------                                         ---------     --------
      Anthesis day (dap)                                      50          -99
      Physiological maturity day (dap)                       103          -99
      Yield at harvest maturity (kg [dm]/ha)                1662          -99
      Number at maturity (no/m2)                            1358          -99
      Unit wt at maturity (g [dm]/unit)                   0.1223          -99
      Number at maturity (no/unit)                         219.1          -99
      Tops weight at maturity (kg [dm]/ha)                  4104          -99
      By-product produced (stalk) at maturity (kg[dm]/ha    2469          -99
      Leaf area index, maximum                              1.29          -99
      Harvest index at maturity                            0.405          -99
      Grain N at maturity (kg/ha)                             30          -99
      Tops N at maturity (kg/ha)                              49          -99
      Stem N at maturity (kg/ha)                              18          -99
      Grain N at maturity (%)                                1.8          -99
      Tops weight at anthesis (kg [dm]/ha)                  1987          -99
      Tops N at anthesis (kg/ha)                              17          -99
      Leaf number per stem at maturity                     16.85          -99
      Emergence day (dap)                                      6          -99


*ENVIRONMENTAL AND STRESS FACTORS

 |-----Development Phase------|--------------------------------------Environment--------------------------------------|-----------------Stress-----------------|
                              |---------------Average--------------|-----Cumulative-----|--------Count of days--------|          (0=Min, 1=Max Stress)         |
                         Time  Temp  Temp  Temp Solar Photop                Evapo    Pot TMIN TMIN TMAX TMAX TMAX RAIN|----Water----|---Nitrogen--|-Phosphorus-|
                         Span   Max   Min  Mean   Rad  [day]    CO2   Rain  Trans     ET   <    <    >    >    >    >   Photo         Photo         Photo
                         days    邂    邂    邂 MJ/m2     hr    ppm     mm     mm     mm  0邂  2邂 30邂 32邂 34邂  0mm  synth Growth  synth Growth  synth Growth
----------------------------------------------------------------------------------------------------------------------------------------------------------------
 Emergence-End Juvenile    10  33.2  18.4  25.8  17.4   0.00  364.9    9.0    8.2   49.0    0    0   10    8    1    1  0.000  0.033  0.002  0.005  0.000  0.000
 End Juvenil-Floral Init    4  32.3  18.7  25.5  15.0   0.00  364.9    0.0    4.3   16.8    0    0    3    2    2    0  0.000  0.076  0.001  0.002  0.000  0.000
 Floral Init-End Lf Grow   30  33.6  19.1  26.3  19.2   0.00  365.1   11.0   56.5  153.0    0    0   29   27    7    2  0.349  0.475  0.204  0.359  0.000  0.000
 End Lf Grth-Beg Grn Fil   10  31.2  19.0  25.1  14.7   0.00  365.3   45.0   27.3   38.2    0    0    5    4    1    6  0.123  0.183  0.046  0.072  0.000  0.000
 Grain Filling Phase       40  32.5  19.2  25.8  17.6   6.39  365.5   57.3   48.5  189.3    0    0   34   28    5    9  0.671  0.742  0.000  0.000  0.000  0.000


 Planting to Harvest      103  32.7  18.9  25.8  17.6   2.91  365.3  128.3  155.6  489.4    0    0   89   73   16   20  0.374  0.450  0.064  0.112  0.000  0.000
----------------------------------------------------------------------------------------------------------------------------------------------------------------


*Resource Productivity
 Growing season length: 103 days 

 Precipitation during growing season       128.3 mm[rain]
   Dry Matter Productivity                  3.20 kg[DM]/m3[rain]          =   32.0 kg[DM]/ha per mm[rain]
   Yield Productivity                       1.30 kg[grain yield]/m3[rain] =   13.0 kg[yield]/ha per mm[rain]

 Evapotranspiration during growing season  155.6 mm[ET]
   Dry Matter Productivity                  2.64 kg[DM]/m3[ET]            =   26.4 kg[DM]/ha per mm[ET]
   Yield Productivity                       1.07 kg[grain yield]/m3[ET]   =   10.7 kg[yield]/ha per mm[ET]

 Transpiration during growing season        78.9 mm[EP]
   Dry Matter Productivity                  5.20 kg[DM]/m3[EP]            =   52.0 kg[DM]/ha per mm[EP]
   Yield Productivity                       2.11 kg[grain yield]/m3[EP]   =   21.1 kg[yield]/ha per mm[EP]

 N applied during growing season            161. kg[N applied]/ha
   Dry Matter Productivity                  25.5 kg[DM]/kg[N applied]
   Yield Productivity                       10.3 kg[yield]/kg[N applied]

 N uptake during growing season               53 kg[N uptake]/ha
   Dry Matter Productivity                  77.4 kg[DM]/kg[N uptake]
   Yield Productivity                       31.4 kg[yield]/kg[N uptake]

--------------------------------------------------------------------------------------------------------------

                     Maize YIELD :     1662 kg/ha    [Dry weight] 

**************************************************************************************************************
