*SIMULATION OVERVIEW FILE

*DSSAT Cropping System Model Ver. 4.6.1.000 -release      OCT 02, 2017; 13:55:33
                                                                                
*RUN   1        : P04/02                    MZCER046 ANBU2002    1              
 MODEL          : MZCER046 - Maize                                              
 EXPERIMENT     : ANBU2002 MZ  Analisis a침os de bajo rendimiento Buga          
 DATA PATH      : C:\DSSAT46\maize\                                             
 TREATMENT  1   : P04/02                    MZCER046                            
                                                                                
                                                                                
 CROP           : Maize            CULTIVAR : FNC3056          ECOTYPE :IB0001  
 STARTING DATE  : MAR  3 2002                                                   
 PLANTING DATE  : APR  2 2002        PLANTS/m2 :  6.2     ROW SPACING :  80.cm  
 WEATHER        : CUNI   2002                                                   
 SOIL           : CCBUGA2017     TEXTURE : CL    -   Suelo Buga MADR Fase I     
 SOIL INITIAL C : DEPTH: 90cm EXTR. H2O: 83.9mm  NO3:151.4kg/ha  NH4: 62.4kg/ha 
 WATER BALANCE  : RAINFED                                                       
 IRRIGATION     : NOT IRRIGATED                                                 
 NITROGEN BAL.  : SOIL-N & N-UPTAKE SIMULATION; NO N-FIXATION                   
 N-FERTILIZER   :      161 kg/ha IN     5 APPLICATIONS                          
 RESIDUE/MANURE : INITIAL :     0 kg/ha ;       0 kg/ha IN     0 APPLICATIONS   
 ENVIRONM. OPT. : DAYL=    0.00  SRAD=    0.00  TMAX=    0.00  TMIN=    0.00    
                  RAIN=    0.00  CO2 =    0.00  DEW =    0.00  WIND=    0.00    
 SIMULATION OPT : WATER   :Y  NITROGEN:Y  N-FIX:N  PHOSPH :N  PESTS  :N         
                  PHOTO   :C  ET      :R  INFIL:S  HYDROL :R  SOM    :G         
                  CO2 372ppm  NSWIT   :1  EVAP :S  SOIL   :2  STEMP  :D         
 MANAGEMENT OPT : PLANTING:R  IRRIG   :N  FERT :D  RESIDUE:R  HARVEST:M         
                  WEATHER :M  TILLAGE :N                                        
                                                                                
*SUMMARY OF SOIL AND GENETIC INPUT PARAMETERS                                   
                                                                                
   SOIL LOWER UPPER   SAT  EXTR  INIT   ROOT   BULK     pH    NO3    NH4    ORG 
  DEPTH LIMIT LIMIT    SW    SW    SW   DIST   DENS                          C  
   cm   cm3/cm3    cm3/cm3    cm3/cm3         g/cm3         ugN/g  ugN/g     %  
------------------------------------------------------------------------------- 
  0-  5 0.215 0.331 0.341 0.116 0.319   1.00   1.68   6.70  11.90   4.21   0.75 
  5- 15 0.215 0.331 0.341 0.116 0.319   1.00   1.68   6.70  11.90   4.21   0.75 
 15- 25 0.215 0.331 0.341 0.116 0.319   1.00   1.68   6.70  11.90   4.21   0.75 
 25- 35 0.181 0.291 0.364 0.110 0.331   0.50   1.61   7.20  12.15   4.32   0.53 
 35- 45 0.181 0.291 0.364 0.110 0.344   0.50   1.61   7.20  12.40   4.44   0.53 
 45- 67 0.096 0.169 0.404 0.073 0.290   0.27   1.51   7.00  10.67   4.47   0.05 
 67- 90 0.096 0.169 0.404 0.073 0.195   0.27   1.51   7.00   7.63   4.53   0.05 
                                                                                
TOT- 90  13.3  21.7  34.0   8.4  25.6  <--cm   -  kg/ha-->  151.4   62.4  51964 
SOIL ALBEDO    : 0.09      EVAPORATION LIMIT : 6.00         MIN. FACTOR  : 1.00 
RUNOFF CURVE # :76.00      DRAINAGE RATE     : 0.60         FERT. FACTOR : 1.00 
                                                                                
 Maize      CULTIVAR :CI0003-FNC3056            ECOTYPE :IB0001                 
 P1     : 233.00  P2     : 0.5000  P5     : 976.00                              
 G2     : 956.00  G3     :  7.500  PHINT  : 45.600                              


*SIMULATED CROP AND SOIL STATUS AT MAIN DEVELOPMENT STAGES

 RUN NO.     1     P04/02                  

        CROP GROWTH     BIOMASS         LEAF   CROP N     STRESS      STRESS                                           
   DATE  AGE STAGE        kg/ha    LAI   NUM  kg/ha  %   H2O  Nitr Phos1 Phos2  RSTG                                   
 ------  --- ----------   -----  -----  ----  ---  ---  ----  ----  ----  ----  ----                                   
  3 MAR    0 Start Sim        0   0.00   0.0    0  0.0  0.00  0.00  0.00  0.00     7
  2 APR    0 Sowing           0   0.00   0.0    0  0.0  0.00  0.00  0.00  0.00     8
  3 APR    1 Germinate        0   0.00   0.0    0  0.0  0.00  0.00  0.00  0.00     9
  8 APR    6 Emergence       25   0.00   2.1    1  4.4  0.00  0.01  0.00  0.00     1
 21 APR   19 End Juveni     126   0.26   7.6    4  3.4  0.00  0.00  0.00  0.00     2
 28 APR   26 Floral Ini     277   0.51  10.2   10  3.6  0.00  0.00  0.00  0.00     3
  5 JUN   64 75% Silkin    6189   3.35  21.3  129  2.1  0.11  0.00  0.00  0.00     4
 15 JUN   74 Beg Gr Fil    8524   3.35  21.3  129  1.5  0.00  0.00  0.00  0.00     5
 30 JUL  119 End Gr Fil   11025   0.63  21.3  139  1.3  0.80  0.00  0.00  0.00     6
  3 AUG  123 Maturity     11025   0.63  21.3  139  1.3  0.98  0.00  0.00  0.00    10
  3 AUG  123 Harvest      11025   0.63  21.3  139  1.3  0.00  0.00  0.00  0.00    10


*MAIN GROWTH AND DEVELOPMENT VARIABLES

@     VARIABLE                                         SIMULATED     MEASURED
      --------                                         ---------     --------
      Anthesis day (dap)                                      64          -99
      Physiological maturity day (dap)                       123          -99
      Yield at harvest maturity (kg [dm]/ha)                4093          -99
      Number at maturity (no/m2)                            2904          -99
      Unit wt at maturity (g [dm]/unit)                   0.1409          -99
      Number at maturity (no/unit)                         468.4          -99
      Tops weight at maturity (kg [dm]/ha)                 11025          -99
      By-product produced (stalk) at maturity (kg[dm]/ha    6993          -99
      Leaf area index, maximum                              3.62          -99
      Harvest index at maturity                            0.371          -99
      Grain N at maturity (kg/ha)                             75          -99
      Tops N at maturity (kg/ha)                             139          -99
      Stem N at maturity (kg/ha)                              64          -99
      Grain N at maturity (%)                                1.8          -99
      Tops weight at anthesis (kg [dm]/ha)                  6121          -99
      Tops N at anthesis (kg/ha)                             129          -99
      Leaf number per stem at maturity                     21.34          -99
      Emergence day (dap)                                      6          -99


*ENVIRONMENTAL AND STRESS FACTORS

 |-----Development Phase------|--------------------------------------Environment--------------------------------------|-----------------Stress-----------------|
                              |---------------Average--------------|-----Cumulative-----|--------Count of days--------|          (0=Min, 1=Max Stress)         |
                         Time  Temp  Temp  Temp Solar Photop                Evapo    Pot TMIN TMIN TMAX TMAX TMAX RAIN|----Water----|---Nitrogen--|-Phosphorus-|
                         Span   Max   Min  Mean   Rad  [day]    CO2   Rain  Trans     ET   <    <    >    >    >    >   Photo         Photo         Photo
                         days    邂    邂    邂 MJ/m2     hr    ppm     mm     mm     mm  0邂  2邂 30邂 32邂 34邂  0mm  synth Growth  synth Growth  synth Growth
----------------------------------------------------------------------------------------------------------------------------------------------------------------
 Emergence-End Juvenile    13  30.4  19.3  24.9  14.9  22.01  372.4   43.0   29.8   53.7    0    0    8    4    0    5  0.000  0.000  0.002  0.005  0.000  0.000
 End Juvenil-Floral Init    7  28.9  19.9  24.4  12.6  24.00  372.5   65.0   19.7   23.5    0    0    3    0    0    6  0.000  0.000  0.000  0.001  0.000  0.000
 Floral Init-End Lf Grow   38  29.2  19.4  24.3  14.6  24.00  372.6   53.4  120.9  134.8    0    0   15    2    0   12  0.049  0.088  0.000  0.000  0.000  0.000
 End Lf Grth-Beg Grn Fil   10  30.7  18.7  24.7  16.4  24.00  372.7   64.8   36.8   38.9    0    0    7    3    0    8  0.060  0.074  0.000  0.000  0.000  0.000
 Grain Filling Phase       45  30.4  18.9  24.7  17.6  24.00  373.0   22.2   67.8  194.0    0    0   29    9    1    8  0.728  0.775  0.000  0.000  0.000  0.000


 Planting to Harvest      123  29.9  19.1  24.5  15.9  23.44  372.7  310.0  303.3  490.4    0    0   66   18    1   44  0.318  0.349  0.000  0.001  0.000  0.000
----------------------------------------------------------------------------------------------------------------------------------------------------------------


*Resource Productivity
 Growing season length: 123 days 

 Precipitation during growing season       310.0 mm[rain]
   Dry Matter Productivity                  3.56 kg[DM]/m3[rain]          =   35.6 kg[DM]/ha per mm[rain]
   Yield Productivity                       1.32 kg[grain yield]/m3[rain] =   13.2 kg[yield]/ha per mm[rain]

 Evapotranspiration during growing season  303.3 mm[ET]
   Dry Matter Productivity                  3.64 kg[DM]/m3[ET]            =   36.4 kg[DM]/ha per mm[ET]
   Yield Productivity                       1.35 kg[grain yield]/m3[ET]   =   13.5 kg[yield]/ha per mm[ET]

 Transpiration during growing season       168.2 mm[EP]
   Dry Matter Productivity                  6.56 kg[DM]/m3[EP]            =   65.6 kg[DM]/ha per mm[EP]
   Yield Productivity                       2.43 kg[grain yield]/m3[EP]   =   24.3 kg[yield]/ha per mm[EP]

 N applied during growing season            161. kg[N applied]/ha
   Dry Matter Productivity                  68.5 kg[DM]/kg[N applied]
   Yield Productivity                       25.4 kg[yield]/kg[N applied]

 N uptake during growing season              150 kg[N uptake]/ha
   Dry Matter Productivity                  73.5 kg[DM]/kg[N uptake]
   Yield Productivity                       27.3 kg[yield]/kg[N uptake]

--------------------------------------------------------------------------------------------------------------

                     Maize YIELD :     4093 kg/ha    [Dry weight] 

**************************************************************************************************************

*DSSAT Cropping System Model Ver. 4.6.1.000 -release      OCT 02, 2017; 13:55:34
                                                                                
*RUN   2        : P04/07                    MZCER046 ANBU2002    2              
 MODEL          : MZCER046 - Maize                                              
 EXPERIMENT     : ANBU2002 MZ  Analisis a침os de bajo rendimiento Buga          
 DATA PATH      : C:\DSSAT46\maize\                                             
 TREATMENT  2   : P04/07                    MZCER046                            
                                                                                
                                                                                
 CROP           : Maize            CULTIVAR : FNC3056          ECOTYPE :IB0001  
 STARTING DATE  : MAR  8 2002                                                   
 PLANTING DATE  : APR  7 2002        PLANTS/m2 :  6.2     ROW SPACING :  80.cm  
 WEATHER        : CUNI   2002                                                   
 SOIL           : CCBUGA2017     TEXTURE : CL    -   Suelo Buga MADR Fase I     
 SOIL INITIAL C : DEPTH: 90cm EXTR. H2O: 83.9mm  NO3:151.4kg/ha  NH4: 62.4kg/ha 
 WATER BALANCE  : RAINFED                                                       
 IRRIGATION     : NOT IRRIGATED                                                 
 NITROGEN BAL.  : SOIL-N & N-UPTAKE SIMULATION; NO N-FIXATION                   
 N-FERTILIZER   :      161 kg/ha IN     5 APPLICATIONS                          
 RESIDUE/MANURE : INITIAL :     0 kg/ha ;       0 kg/ha IN     0 APPLICATIONS   
 ENVIRONM. OPT. : DAYL=    0.00  SRAD=    0.00  TMAX=    0.00  TMIN=    0.00    
                  RAIN=    0.00  CO2 =    0.00  DEW =    0.00  WIND=    0.00    
 SIMULATION OPT : WATER   :Y  NITROGEN:Y  N-FIX:N  PHOSPH :N  PESTS  :N         
                  PHOTO   :C  ET      :R  INFIL:S  HYDROL :R  SOM    :G         
                  CO2 372ppm  NSWIT   :1  EVAP :S  SOIL   :2  STEMP  :D         
 MANAGEMENT OPT : PLANTING:R  IRRIG   :N  FERT :D  RESIDUE:R  HARVEST:M         
                  WEATHER :M  TILLAGE :N                                        
                                                                                
*SUMMARY OF SOIL AND GENETIC INPUT PARAMETERS                                   
                                                                                
   SOIL LOWER UPPER   SAT  EXTR  INIT   ROOT   BULK     pH    NO3    NH4    ORG 
  DEPTH LIMIT LIMIT    SW    SW    SW   DIST   DENS                          C  
   cm   cm3/cm3    cm3/cm3    cm3/cm3         g/cm3         ugN/g  ugN/g     %  
------------------------------------------------------------------------------- 
  0-  5 0.215 0.331 0.341 0.116 0.319   1.00   1.68   6.70  11.90   4.21   0.75 
  5- 15 0.215 0.331 0.341 0.116 0.319   1.00   1.68   6.70  11.90   4.21   0.75 
 15- 25 0.215 0.331 0.341 0.116 0.319   1.00   1.68   6.70  11.90   4.21   0.75 
 25- 35 0.181 0.291 0.364 0.110 0.331   0.50   1.61   7.20  12.15   4.32   0.53 
 35- 45 0.181 0.291 0.364 0.110 0.344   0.50   1.61   7.20  12.40   4.44   0.53 
 45- 67 0.096 0.169 0.404 0.073 0.290   0.27   1.51   7.00  10.67   4.47   0.05 
 67- 90 0.096 0.169 0.404 0.073 0.195   0.27   1.51   7.00   7.63   4.53   0.05 
                                                                                
TOT- 90  13.3  21.7  34.0   8.4  25.6  <--cm   -  kg/ha-->  151.4   62.4  51964 
SOIL ALBEDO    : 0.09      EVAPORATION LIMIT : 6.00         MIN. FACTOR  : 1.00 
RUNOFF CURVE # :76.00      DRAINAGE RATE     : 0.60         FERT. FACTOR : 1.00 
                                                                                
 Maize      CULTIVAR :CI0003-FNC3056            ECOTYPE :IB0001                 
 P1     : 233.00  P2     : 0.5000  P5     : 976.00                              
 G2     : 956.00  G3     :  7.500  PHINT  : 45.600                              


*SIMULATED CROP AND SOIL STATUS AT MAIN DEVELOPMENT STAGES

 RUN NO.     2     P04/07                  

        CROP GROWTH     BIOMASS         LEAF   CROP N     STRESS      STRESS                                           
   DATE  AGE STAGE        kg/ha    LAI   NUM  kg/ha  %   H2O  Nitr Phos1 Phos2  RSTG                                   
 ------  --- ----------   -----  -----  ----  ---  ---  ----  ----  ----  ----  ----                                   
  8 MAR    0 Start Sim        0   0.00   0.0    0  0.0  0.00  0.00  0.00  0.00     7
  7 APR    0 Sowing           0   0.00   0.0    0  0.0  0.00  0.00  0.00  0.00     8
  8 APR    1 Germinate        0   0.00   0.0    0  0.0  0.00  0.00  0.00  0.00     9
 13 APR    6 Emergence       25   0.00   2.1    1  4.4  0.00  0.01  0.00  0.00     1
 26 APR   19 End Juveni      87   0.19   7.6    3  3.7  0.00  0.00  0.00  0.00     2
  4 MAY   27 Floral Ini     333   0.60  10.5   12  3.6  0.00  0.00  0.00  0.00     3
 12 JUN   66 75% Silkin    6923   3.85  22.0  141  2.0  0.09  0.00  0.00  0.00     4
 22 JUN   76 Beg Gr Fil    9175   3.54  22.0  141  1.5  0.22  0.00  0.00  0.00     5
  7 AUG  122 End Gr Fil   10759   0.50  22.0  141  1.3  0.89  0.00  0.00  0.00     6
  9 AUG  124 Maturity     10759   0.50  22.0  141  1.3  0.98  0.00  0.00  0.00    10
  9 AUG  124 Harvest      10759   0.50  22.0  141  1.3  0.00  0.00  0.00  0.00    10


*MAIN GROWTH AND DEVELOPMENT VARIABLES

@     VARIABLE                                         SIMULATED     MEASURED
      --------                                         ---------     --------
      Anthesis day (dap)                                      66          -99
      Physiological maturity day (dap)                       124          -99
      Yield at harvest maturity (kg [dm]/ha)                3160          -99
      Number at maturity (no/m2)                            3168          -99
      Unit wt at maturity (g [dm]/unit)                   0.0998          -99
      Number at maturity (no/unit)                         511.0          -99
      Tops weight at maturity (kg [dm]/ha)                 10759          -99
      By-product produced (stalk) at maturity (kg[dm]/ha    7665          -99
      Leaf area index, maximum                              3.85          -99
      Harvest index at maturity                            0.294          -99
      Grain N at maturity (kg/ha)                             59          -99
      Tops N at maturity (kg/ha)                             141          -99
      Stem N at maturity (kg/ha)                              82          -99
      Grain N at maturity (%)                                1.9          -99
      Tops weight at anthesis (kg [dm]/ha)                  6634          -99
      Tops N at anthesis (kg/ha)                             137          -99
      Leaf number per stem at maturity                     21.99          -99
      Emergence day (dap)                                      6          -99


*ENVIRONMENTAL AND STRESS FACTORS

 |-----Development Phase------|--------------------------------------Environment--------------------------------------|-----------------Stress-----------------|
                              |---------------Average--------------|-----Cumulative-----|--------Count of days--------|          (0=Min, 1=Max Stress)         |
                         Time  Temp  Temp  Temp Solar Photop                Evapo    Pot TMIN TMIN TMAX TMAX TMAX RAIN|----Water----|---Nitrogen--|-Phosphorus-|
                         Span   Max   Min  Mean   Rad  [day]    CO2   Rain  Trans     ET   <    <    >    >    >    >   Photo         Photo         Photo
                         days    邂    邂    邂 MJ/m2     hr    ppm     mm     mm     mm  0邂  2邂 30邂 32邂 34邂  0mm  synth Growth  synth Growth  synth Growth
----------------------------------------------------------------------------------------------------------------------------------------------------------------
 Emergence-End Juvenile    13  29.9  19.7  24.8  14.6  23.76  372.5   58.0   23.9   52.8    0    0    7    2    0    7  0.000  0.000  0.002  0.005  0.000  0.000
 End Juvenil-Floral Init    8  29.1  19.5  24.3  15.2  24.00  372.5   23.0   30.6   32.7    0    0    4    0    0    4  0.000  0.000  0.000  0.001  0.000  0.000
 Floral Init-End Lf Grow   39  29.4  19.3  24.3  14.6  24.00  372.7  106.2  118.3  137.3    0    0   15    4    0   17  0.042  0.087  0.000  0.000  0.000  0.000
 End Lf Grth-Beg Grn Fil   10  30.8  19.0  24.9  18.1  24.00  372.9    5.0   39.0   42.7    0    0    8    2    0    1  0.086  0.151  0.000  0.000  0.000  0.000
 Grain Filling Phase       46  30.4  18.6  24.5  17.9  24.00  373.0   26.4   49.5  204.0    0    0   28   10    1    9  0.845  0.883  0.000  0.000  0.000  0.000


 Planting to Harvest      124  30.0  19.0  24.5  16.1  23.74  372.8  271.6  283.5  498.3    0    0   69   21    1   41  0.349  0.383  0.000  0.001  0.000  0.000
----------------------------------------------------------------------------------------------------------------------------------------------------------------


*Resource Productivity
 Growing season length: 124 days 

 Precipitation during growing season       271.6 mm[rain]
   Dry Matter Productivity                  3.96 kg[DM]/m3[rain]          =   39.6 kg[DM]/ha per mm[rain]
   Yield Productivity                       1.16 kg[grain yield]/m3[rain] =   11.6 kg[yield]/ha per mm[rain]

 Evapotranspiration during growing season  283.5 mm[ET]
   Dry Matter Productivity                  3.80 kg[DM]/m3[ET]            =   38.0 kg[DM]/ha per mm[ET]
   Yield Productivity                       1.11 kg[grain yield]/m3[ET]   =   11.1 kg[yield]/ha per mm[ET]

 Transpiration during growing season       162.8 mm[EP]
   Dry Matter Productivity                  6.61 kg[DM]/m3[EP]            =   66.1 kg[DM]/ha per mm[EP]
   Yield Productivity                       1.94 kg[grain yield]/m3[EP]   =   19.4 kg[yield]/ha per mm[EP]

 N applied during growing season            161. kg[N applied]/ha
   Dry Matter Productivity                  66.8 kg[DM]/kg[N applied]
   Yield Productivity                       19.6 kg[yield]/kg[N applied]

 N uptake during growing season              153 kg[N uptake]/ha
   Dry Matter Productivity                  70.3 kg[DM]/kg[N uptake]
   Yield Productivity                       20.7 kg[yield]/kg[N uptake]

--------------------------------------------------------------------------------------------------------------

                     Maize YIELD :     3160 kg/ha    [Dry weight] 

**************************************************************************************************************

*DSSAT Cropping System Model Ver. 4.6.1.000 -release      OCT 02, 2017; 13:55:34
                                                                                
*RUN   3        : P04/12                    MZCER046 ANBU2002    3              
 MODEL          : MZCER046 - Maize                                              
 EXPERIMENT     : ANBU2002 MZ  Analisis a침os de bajo rendimiento Buga          
 DATA PATH      : C:\DSSAT46\maize\                                             
 TREATMENT  3   : P04/12                    MZCER046                            
                                                                                
                                                                                
 CROP           : Maize            CULTIVAR : FNC3056          ECOTYPE :IB0001  
 STARTING DATE  : MAR 13 2002                                                   
 PLANTING DATE  : APR 12 2002        PLANTS/m2 :  6.2     ROW SPACING :  80.cm  
 WEATHER        : CUNI   2002                                                   
 SOIL           : CCBUGA2017     TEXTURE : CL    -   Suelo Buga MADR Fase I     
 SOIL INITIAL C : DEPTH: 90cm EXTR. H2O: 83.9mm  NO3:151.4kg/ha  NH4: 62.4kg/ha 
 WATER BALANCE  : RAINFED                                                       
 IRRIGATION     : NOT IRRIGATED                                                 
 NITROGEN BAL.  : SOIL-N & N-UPTAKE SIMULATION; NO N-FIXATION                   
 N-FERTILIZER   :      161 kg/ha IN     5 APPLICATIONS                          
 RESIDUE/MANURE : INITIAL :     0 kg/ha ;       0 kg/ha IN     0 APPLICATIONS   
 ENVIRONM. OPT. : DAYL=    0.00  SRAD=    0.00  TMAX=    0.00  TMIN=    0.00    
                  RAIN=    0.00  CO2 =    0.00  DEW =    0.00  WIND=    0.00    
 SIMULATION OPT : WATER   :Y  NITROGEN:Y  N-FIX:N  PHOSPH :N  PESTS  :N         
                  PHOTO   :C  ET      :R  INFIL:S  HYDROL :R  SOM    :G         
                  CO2 372ppm  NSWIT   :1  EVAP :S  SOIL   :2  STEMP  :D         
 MANAGEMENT OPT : PLANTING:R  IRRIG   :N  FERT :D  RESIDUE:R  HARVEST:M         
                  WEATHER :M  TILLAGE :N                                        
                                                                                
*SUMMARY OF SOIL AND GENETIC INPUT PARAMETERS                                   
                                                                                
   SOIL LOWER UPPER   SAT  EXTR  INIT   ROOT   BULK     pH    NO3    NH4    ORG 
  DEPTH LIMIT LIMIT    SW    SW    SW   DIST   DENS                          C  
   cm   cm3/cm3    cm3/cm3    cm3/cm3         g/cm3         ugN/g  ugN/g     %  
------------------------------------------------------------------------------- 
  0-  5 0.215 0.331 0.341 0.116 0.319   1.00   1.68   6.70  11.90   4.21   0.75 
  5- 15 0.215 0.331 0.341 0.116 0.319   1.00   1.68   6.70  11.90   4.21   0.75 
 15- 25 0.215 0.331 0.341 0.116 0.319   1.00   1.68   6.70  11.90   4.21   0.75 
 25- 35 0.181 0.291 0.364 0.110 0.331   0.50   1.61   7.20  12.15   4.32   0.53 
 35- 45 0.181 0.291 0.364 0.110 0.344   0.50   1.61   7.20  12.40   4.44   0.53 
 45- 67 0.096 0.169 0.404 0.073 0.290   0.27   1.51   7.00  10.67   4.47   0.05 
 67- 90 0.096 0.169 0.404 0.073 0.195   0.27   1.51   7.00   7.63   4.53   0.05 
                                                                                
TOT- 90  13.3  21.7  34.0   8.4  25.6  <--cm   -  kg/ha-->  151.4   62.4  51964 
SOIL ALBEDO    : 0.09      EVAPORATION LIMIT : 6.00         MIN. FACTOR  : 1.00 
RUNOFF CURVE # :76.00      DRAINAGE RATE     : 0.60         FERT. FACTOR : 1.00 
                                                                                
 Maize      CULTIVAR :CI0003-FNC3056            ECOTYPE :IB0001                 
 P1     : 233.00  P2     : 0.5000  P5     : 976.00                              
 G2     : 956.00  G3     :  7.500  PHINT  : 45.600                              


*SIMULATED CROP AND SOIL STATUS AT MAIN DEVELOPMENT STAGES

 RUN NO.     3     P04/12                  

        CROP GROWTH     BIOMASS         LEAF   CROP N     STRESS      STRESS                                           
   DATE  AGE STAGE        kg/ha    LAI   NUM  kg/ha  %   H2O  Nitr Phos1 Phos2  RSTG                                   
 ------  --- ----------   -----  -----  ----  ---  ---  ----  ----  ----  ----  ----                                   
 13 MAR    0 Start Sim        0   0.00   0.0    0  0.0  0.00  0.00  0.00  0.00     7
 12 APR    0 Sowing           0   0.00   0.0    0  0.0  0.00  0.00  0.00  0.00     8
 13 APR    1 Germinate        0   0.00   0.0    0  0.0  0.00  0.00  0.00  0.00     9
 18 APR    6 Emergence       25   0.00   2.0    1  4.4  0.00  0.01  0.00  0.00     1
  2 MAY   20 End Juveni      85   0.18   7.8    3  3.1  0.00  0.00  0.00  0.00     2
 10 MAY   28 Floral Ini     400   0.69  10.7   14  3.6  0.00  0.00  0.00  0.00     3
 18 JUN   67 75% Silkin    7348   4.10  22.2  142  1.9  0.02  0.00  0.00  0.00     4
 28 JUN   77 Beg Gr Fil    8709   3.23  22.2  144  1.7  0.60  0.00  0.00  0.00     5
  Crop mature on JD 218 due to slowed grain filling
  7 AUG  117 End Gr Fil   10012   0.58  22.2  144  1.4  0.89  0.00  0.00  0.00     6
  8 AUG  118 Maturity     10012   0.58  22.2  144  1.4  1.00  0.00  0.00  0.00    10
  8 AUG  118 Harvest      10012   0.58  22.2  144  1.4  0.00  0.00  0.00  0.00    10


*MAIN GROWTH AND DEVELOPMENT VARIABLES

@     VARIABLE                                         SIMULATED     MEASURED
      --------                                         ---------     --------
      Anthesis day (dap)                                      67          -99
      Physiological maturity day (dap)                       118          -99
      Yield at harvest maturity (kg [dm]/ha)                2764          -99
      Number at maturity (no/m2)                            2301          -99
      Unit wt at maturity (g [dm]/unit)                   0.1201          -99
      Number at maturity (no/unit)                         371.2          -99
      Tops weight at maturity (kg [dm]/ha)                 10012          -99
      By-product produced (stalk) at maturity (kg[dm]/ha    7316          -99
      Leaf area index, maximum                              4.26          -99
      Harvest index at maturity                            0.276          -99
      Grain N at maturity (kg/ha)                             52          -99
      Tops N at maturity (kg/ha)                             144          -99
      Stem N at maturity (kg/ha)                              93          -99
      Grain N at maturity (%)                                1.9          -99
      Tops weight at anthesis (kg [dm]/ha)                  7118          -99
      Tops N at anthesis (kg/ha)                             141          -99
      Leaf number per stem at maturity                     22.21          -99
      Emergence day (dap)                                      6          -99


*ENVIRONMENTAL AND STRESS FACTORS

 |-----Development Phase------|--------------------------------------Environment--------------------------------------|-----------------Stress-----------------|
                              |---------------Average--------------|-----Cumulative-----|--------Count of days--------|          (0=Min, 1=Max Stress)         |
                         Time  Temp  Temp  Temp Solar Photop                Evapo    Pot TMIN TMIN TMAX TMAX TMAX RAIN|----Water----|---Nitrogen--|-Phosphorus-|
                         Span   Max   Min  Mean   Rad  [day]    CO2   Rain  Trans     ET   <    <    >    >    >    >   Photo         Photo         Photo
                         days    邂    邂    邂 MJ/m2     hr    ppm     mm     mm     mm  0邂  2邂 30邂 32邂 34邂  0mm  synth Growth  synth Growth  synth Growth
----------------------------------------------------------------------------------------------------------------------------------------------------------------
 Emergence-End Juvenile    14  28.8  19.7  24.3  13.7  24.00  372.5   80.0   41.5   52.9    0    0    5    0    0   10  0.000  0.000  0.002  0.005  0.000  0.000
 End Juvenil-Floral Init    8  28.8  19.4  24.1  15.2  24.00  372.5    0.0   13.2   32.2    0    0    2    0    0    0  0.000  0.000  0.001  0.002  0.000  0.000
 Floral Init-End Lf Grow   39  29.9  19.2  24.6  15.1  24.00  372.7  111.2  130.3  141.5    0    0   21    6    0   18  0.005  0.018  0.000  0.000  0.000  0.000
 End Lf Grth-Beg Grn Fil   10  29.1  19.0  24.0  17.8  24.00  372.9    0.0   27.2   41.2    0    0    4    0    0    0  0.373  0.514  0.000  0.000  0.000  0.000
 Grain Filling Phase       40  30.6  18.5  24.5  18.1  24.00  373.0   26.4   42.2  178.7    0    0   26   10    1    9  0.857  0.882  0.000  0.000  0.000  0.000


 Planting to Harvest      118  29.9  19.0  24.5  16.2  23.95  372.8  218.6  263.5  476.9    0    0   64   18    1   38  0.332  0.357  0.000  0.001  0.000  0.000
----------------------------------------------------------------------------------------------------------------------------------------------------------------


*Resource Productivity
 Growing season length: 118 days 

 Precipitation during growing season       218.6 mm[rain]
   Dry Matter Productivity                  4.58 kg[DM]/m3[rain]          =   45.8 kg[DM]/ha per mm[rain]
   Yield Productivity                       1.26 kg[grain yield]/m3[rain] =   12.6 kg[yield]/ha per mm[rain]

 Evapotranspiration during growing season  263.5 mm[ET]
   Dry Matter Productivity                  3.80 kg[DM]/m3[ET]            =   38.0 kg[DM]/ha per mm[ET]
   Yield Productivity                       1.05 kg[grain yield]/m3[ET]   =   10.5 kg[yield]/ha per mm[ET]

 Transpiration during growing season       158.4 mm[EP]
   Dry Matter Productivity                  6.32 kg[DM]/m3[EP]            =   63.2 kg[DM]/ha per mm[EP]
   Yield Productivity                       1.74 kg[grain yield]/m3[EP]   =   17.4 kg[yield]/ha per mm[EP]

 N applied during growing season            161. kg[N applied]/ha
   Dry Matter Productivity                  62.2 kg[DM]/kg[N applied]
   Yield Productivity                       17.2 kg[yield]/kg[N applied]

 N uptake during growing season              159 kg[N uptake]/ha
   Dry Matter Productivity                  63.0 kg[DM]/kg[N uptake]
   Yield Productivity                       17.4 kg[yield]/kg[N uptake]

--------------------------------------------------------------------------------------------------------------

                     Maize YIELD :     2764 kg/ha    [Dry weight] 

**************************************************************************************************************

*DSSAT Cropping System Model Ver. 4.6.1.000 -release      OCT 02, 2017; 13:55:34
                                                                                
*RUN   4        : P04/17                    MZCER046 ANBU2002    4              
 MODEL          : MZCER046 - Maize                                              
 EXPERIMENT     : ANBU2002 MZ  Analisis a침os de bajo rendimiento Buga          
 DATA PATH      : C:\DSSAT46\maize\                                             
 TREATMENT  4   : P04/17                    MZCER046                            
                                                                                
                                                                                
 CROP           : Maize            CULTIVAR : FNC3056          ECOTYPE :IB0001  
 STARTING DATE  : MAR 18 2002                                                   
 PLANTING DATE  : APR 17 2002        PLANTS/m2 :  6.2     ROW SPACING :  80.cm  
 WEATHER        : CUNI   2002                                                   
 SOIL           : CCBUGA2017     TEXTURE : CL    -   Suelo Buga MADR Fase I     
 SOIL INITIAL C : DEPTH: 90cm EXTR. H2O: 83.9mm  NO3:151.4kg/ha  NH4: 62.4kg/ha 
 WATER BALANCE  : RAINFED                                                       
 IRRIGATION     : NOT IRRIGATED                                                 
 NITROGEN BAL.  : SOIL-N & N-UPTAKE SIMULATION; NO N-FIXATION                   
 N-FERTILIZER   :      161 kg/ha IN     5 APPLICATIONS                          
 RESIDUE/MANURE : INITIAL :     0 kg/ha ;       0 kg/ha IN     0 APPLICATIONS   
 ENVIRONM. OPT. : DAYL=    0.00  SRAD=    0.00  TMAX=    0.00  TMIN=    0.00    
                  RAIN=    0.00  CO2 =    0.00  DEW =    0.00  WIND=    0.00    
 SIMULATION OPT : WATER   :Y  NITROGEN:Y  N-FIX:N  PHOSPH :N  PESTS  :N         
                  PHOTO   :C  ET      :R  INFIL:S  HYDROL :R  SOM    :G         
                  CO2 372ppm  NSWIT   :1  EVAP :S  SOIL   :2  STEMP  :D         
 MANAGEMENT OPT : PLANTING:R  IRRIG   :N  FERT :D  RESIDUE:R  HARVEST:M         
                  WEATHER :M  TILLAGE :N                                        
                                                                                
*SUMMARY OF SOIL AND GENETIC INPUT PARAMETERS                                   
                                                                                
   SOIL LOWER UPPER   SAT  EXTR  INIT   ROOT   BULK     pH    NO3    NH4    ORG 
  DEPTH LIMIT LIMIT    SW    SW    SW   DIST   DENS                          C  
   cm   cm3/cm3    cm3/cm3    cm3/cm3         g/cm3         ugN/g  ugN/g     %  
------------------------------------------------------------------------------- 
  0-  5 0.215 0.331 0.341 0.116 0.319   1.00   1.68   6.70  11.90   4.21   0.75 
  5- 15 0.215 0.331 0.341 0.116 0.319   1.00   1.68   6.70  11.90   4.21   0.75 
 15- 25 0.215 0.331 0.341 0.116 0.319   1.00   1.68   6.70  11.90   4.21   0.75 
 25- 35 0.181 0.291 0.364 0.110 0.331   0.50   1.61   7.20  12.15   4.32   0.53 
 35- 45 0.181 0.291 0.364 0.110 0.344   0.50   1.61   7.20  12.40   4.44   0.53 
 45- 67 0.096 0.169 0.404 0.073 0.290   0.27   1.51   7.00  10.67   4.47   0.05 
 67- 90 0.096 0.169 0.404 0.073 0.195   0.27   1.51   7.00   7.63   4.53   0.05 
                                                                                
TOT- 90  13.3  21.7  34.0   8.4  25.6  <--cm   -  kg/ha-->  151.4   62.4  51964 
SOIL ALBEDO    : 0.09      EVAPORATION LIMIT : 6.00         MIN. FACTOR  : 1.00 
RUNOFF CURVE # :76.00      DRAINAGE RATE     : 0.60         FERT. FACTOR : 1.00 
                                                                                
 Maize      CULTIVAR :CI0003-FNC3056            ECOTYPE :IB0001                 
 P1     : 233.00  P2     : 0.5000  P5     : 976.00                              
 G2     : 956.00  G3     :  7.500  PHINT  : 45.600                              


*SIMULATED CROP AND SOIL STATUS AT MAIN DEVELOPMENT STAGES

 RUN NO.     4     P04/17                  

        CROP GROWTH     BIOMASS         LEAF   CROP N     STRESS      STRESS                                           
   DATE  AGE STAGE        kg/ha    LAI   NUM  kg/ha  %   H2O  Nitr Phos1 Phos2  RSTG                                   
 ------  --- ----------   -----  -----  ----  ---  ---  ----  ----  ----  ----  ----                                   
 18 MAR    0 Start Sim        0   0.00   0.0    0  0.0  0.00  0.00  0.00  0.00     7
 17 APR    0 Sowing           0   0.00   0.0    0  0.0  0.00  0.00  0.00  0.00     8
 18 APR    1 Germinate        0   0.00   0.0    0  0.0  0.00  0.00  0.00  0.00     9
 23 APR    6 Emergence       25   0.00   2.1    1  4.4  0.00  0.01  0.00  0.00     1
  7 MAY   20 End Juveni     112   0.24   7.8    4  3.3  0.00  0.00  0.00  0.00     2
 15 MAY   28 Floral Ini     447   0.76  10.7   16  3.6  0.00  0.00  0.00  0.00     3
 22 JUN   66 75% Silkin    7258   4.01  22.3  144  2.0  0.01  0.00  0.00  0.00     4
  3 JUL   77 Beg Gr Fil    8358   3.04  22.3  145  1.7  0.60  0.00  0.00  0.00     5
 17 AUG  122 End Gr Fil    9654   0.46  22.3  145  1.5  0.87  0.00  0.00  0.00     6
 20 AUG  125 Maturity      9654   0.46  22.3  145  1.5  0.91  0.00  0.00  0.00    10
 20 AUG  125 Harvest       9654   0.46  22.3  145  1.5  0.00  0.00  0.00  0.00    10


*MAIN GROWTH AND DEVELOPMENT VARIABLES

@     VARIABLE                                         SIMULATED     MEASURED
      --------                                         ---------     --------
      Anthesis day (dap)                                      66          -99
      Physiological maturity day (dap)                       125          -99
      Yield at harvest maturity (kg [dm]/ha)                2762          -99
      Number at maturity (no/m2)                            1954          -99
      Unit wt at maturity (g [dm]/unit)                   0.1413          -99
      Number at maturity (no/unit)                         315.2          -99
      Tops weight at maturity (kg [dm]/ha)                  9654          -99
      By-product produced (stalk) at maturity (kg[dm]/ha    6961          -99
      Leaf area index, maximum                              4.19          -99
      Harvest index at maturity                            0.286          -99
      Grain N at maturity (kg/ha)                             52          -99
      Tops N at maturity (kg/ha)                             145          -99
      Stem N at maturity (kg/ha)                              93          -99
      Grain N at maturity (%)                                1.9          -99
      Tops weight at anthesis (kg [dm]/ha)                  7001          -99
      Tops N at anthesis (kg/ha)                             142          -99
      Leaf number per stem at maturity                     22.33          -99
      Emergence day (dap)                                      6          -99


*ENVIRONMENTAL AND STRESS FACTORS

 |-----Development Phase------|--------------------------------------Environment--------------------------------------|-----------------Stress-----------------|
                              |---------------Average--------------|-----Cumulative-----|--------Count of days--------|          (0=Min, 1=Max Stress)         |
                         Time  Temp  Temp  Temp Solar Photop                Evapo    Pot TMIN TMIN TMAX TMAX TMAX RAIN|----Water----|---Nitrogen--|-Phosphorus-|
                         Span   Max   Min  Mean   Rad  [day]    CO2   Rain  Trans     ET   <    <    >    >    >    >   Photo         Photo         Photo
                         days    邂    邂    邂 MJ/m2     hr    ppm     mm     mm     mm  0邂  2邂 30邂 32邂 34邂  0mm  synth Growth  synth Growth  synth Growth
----------------------------------------------------------------------------------------------------------------------------------------------------------------
 Emergence-End Juvenile    14  28.9  19.5  24.2  14.5  24.00  372.5   64.0   39.1   55.8    0    0    6    0    0    7  0.000  0.000  0.002  0.005  0.000  0.000
 End Juvenil-Floral Init    8  28.1  20.1  24.1  13.7  24.00  372.5    0.3   11.2   28.7    0    0    0    0    0    1  0.000  0.000  0.000  0.001  0.000  0.000
 Floral Init-End Lf Grow   38  30.1  19.0  24.6  15.7  24.00  372.7  110.9  136.5  144.2    0    0   23    6    0   17  0.000  0.000  0.000  0.000  0.000  0.000
 End Lf Grth-Beg Grn Fil   11  29.3  19.2  24.3  16.9  24.00  372.9    7.0   25.2   43.3    0    0    4    1    0    1  0.415  0.546  0.000  0.000  0.000  0.000
 Grain Filling Phase       45  31.0  18.4  24.7  18.5  24.00  373.1   38.4   48.1  209.3    0    0   32   14    3    9  0.839  0.871  0.000  0.000  0.000  0.000


 Planting to Harvest      125  30.1  18.9  24.5  16.4  24.00  372.8  236.6  271.9  514.0    0    0   69   22    4   38  0.360  0.384  0.000  0.001  0.000  0.000
----------------------------------------------------------------------------------------------------------------------------------------------------------------


*Resource Productivity
 Growing season length: 125 days 

 Precipitation during growing season       236.6 mm[rain]
   Dry Matter Productivity                  4.08 kg[DM]/m3[rain]          =   40.8 kg[DM]/ha per mm[rain]
   Yield Productivity                       1.17 kg[grain yield]/m3[rain] =   11.7 kg[yield]/ha per mm[rain]

 Evapotranspiration during growing season  271.9 mm[ET]
   Dry Matter Productivity                  3.55 kg[DM]/m3[ET]            =   35.5 kg[DM]/ha per mm[ET]
   Yield Productivity                       1.02 kg[grain yield]/m3[ET]   =   10.2 kg[yield]/ha per mm[ET]

 Transpiration during growing season       159.1 mm[EP]
   Dry Matter Productivity                  6.07 kg[DM]/m3[EP]            =   60.7 kg[DM]/ha per mm[EP]
   Yield Productivity                       1.74 kg[grain yield]/m3[EP]   =   17.4 kg[yield]/ha per mm[EP]

 N applied during growing season            161. kg[N applied]/ha
   Dry Matter Productivity                  60.0 kg[DM]/kg[N applied]
   Yield Productivity                       17.2 kg[yield]/kg[N applied]

 N uptake during growing season              162 kg[N uptake]/ha
   Dry Matter Productivity                  59.6 kg[DM]/kg[N uptake]
   Yield Productivity                       17.0 kg[yield]/kg[N uptake]

--------------------------------------------------------------------------------------------------------------

                     Maize YIELD :     2762 kg/ha    [Dry weight] 

**************************************************************************************************************

*DSSAT Cropping System Model Ver. 4.6.1.000 -release      OCT 02, 2017; 13:55:34
                                                                                
*RUN   5        : P04/22                    MZCER046 ANBU2002    5              
 MODEL          : MZCER046 - Maize                                              
 EXPERIMENT     : ANBU2002 MZ  Analisis a침os de bajo rendimiento Buga          
 DATA PATH      : C:\DSSAT46\maize\                                             
 TREATMENT  5   : P04/22                    MZCER046                            
                                                                                
                                                                                
 CROP           : Maize            CULTIVAR : FNC3056          ECOTYPE :IB0001  
 STARTING DATE  : MAR 23 2002                                                   
 PLANTING DATE  : APR 22 2002        PLANTS/m2 :  6.2     ROW SPACING :  80.cm  
 WEATHER        : CUNI   2002                                                   
 SOIL           : CCBUGA2017     TEXTURE : CL    -   Suelo Buga MADR Fase I     
 SOIL INITIAL C : DEPTH: 90cm EXTR. H2O: 83.9mm  NO3:151.4kg/ha  NH4: 62.4kg/ha 
 WATER BALANCE  : RAINFED                                                       
 IRRIGATION     : NOT IRRIGATED                                                 
 NITROGEN BAL.  : SOIL-N & N-UPTAKE SIMULATION; NO N-FIXATION                   
 N-FERTILIZER   :      161 kg/ha IN     5 APPLICATIONS                          
 RESIDUE/MANURE : INITIAL :     0 kg/ha ;       0 kg/ha IN     0 APPLICATIONS   
 ENVIRONM. OPT. : DAYL=    0.00  SRAD=    0.00  TMAX=    0.00  TMIN=    0.00    
                  RAIN=    0.00  CO2 =    0.00  DEW =    0.00  WIND=    0.00    
 SIMULATION OPT : WATER   :Y  NITROGEN:Y  N-FIX:N  PHOSPH :N  PESTS  :N         
                  PHOTO   :C  ET      :R  INFIL:S  HYDROL :R  SOM    :G         
                  CO2 372ppm  NSWIT   :1  EVAP :S  SOIL   :2  STEMP  :D         
 MANAGEMENT OPT : PLANTING:R  IRRIG   :N  FERT :D  RESIDUE:R  HARVEST:M         
                  WEATHER :M  TILLAGE :N                                        
                                                                                
*SUMMARY OF SOIL AND GENETIC INPUT PARAMETERS                                   
                                                                                
   SOIL LOWER UPPER   SAT  EXTR  INIT   ROOT   BULK     pH    NO3    NH4    ORG 
  DEPTH LIMIT LIMIT    SW    SW    SW   DIST   DENS                          C  
   cm   cm3/cm3    cm3/cm3    cm3/cm3         g/cm3         ugN/g  ugN/g     %  
------------------------------------------------------------------------------- 
  0-  5 0.215 0.331 0.341 0.116 0.319   1.00   1.68   6.70  11.90   4.21   0.75 
  5- 15 0.215 0.331 0.341 0.116 0.319   1.00   1.68   6.70  11.90   4.21   0.75 
 15- 25 0.215 0.331 0.341 0.116 0.319   1.00   1.68   6.70  11.90   4.21   0.75 
 25- 35 0.181 0.291 0.364 0.110 0.331   0.50   1.61   7.20  12.15   4.32   0.53 
 35- 45 0.181 0.291 0.364 0.110 0.344   0.50   1.61   7.20  12.40   4.44   0.53 
 45- 67 0.096 0.169 0.404 0.073 0.290   0.27   1.51   7.00  10.67   4.47   0.05 
 67- 90 0.096 0.169 0.404 0.073 0.195   0.27   1.51   7.00   7.63   4.53   0.05 
                                                                                
TOT- 90  13.3  21.7  34.0   8.4  25.6  <--cm   -  kg/ha-->  151.4   62.4  51964 
SOIL ALBEDO    : 0.09      EVAPORATION LIMIT : 6.00         MIN. FACTOR  : 1.00 
RUNOFF CURVE # :76.00      DRAINAGE RATE     : 0.60         FERT. FACTOR : 1.00 
                                                                                
 Maize      CULTIVAR :CI0003-FNC3056            ECOTYPE :IB0001                 
 P1     : 233.00  P2     : 0.5000  P5     : 976.00                              
 G2     : 956.00  G3     :  7.500  PHINT  : 45.600                              


*SIMULATED CROP AND SOIL STATUS AT MAIN DEVELOPMENT STAGES

 RUN NO.     5     P04/22                  

        CROP GROWTH     BIOMASS         LEAF   CROP N     STRESS      STRESS                                           
   DATE  AGE STAGE        kg/ha    LAI   NUM  kg/ha  %   H2O  Nitr Phos1 Phos2  RSTG                                   
 ------  --- ----------   -----  -----  ----  ---  ---  ----  ----  ----  ----  ----                                   
 23 MAR    0 Start Sim        0   0.00   0.0    0  0.0  0.00  0.00  0.00  0.00     7
 22 APR    0 Sowing           0   0.00   0.0    0  0.0  0.00  0.00  0.00  0.00     8
 23 APR    1 Germinate        0   0.00   0.0    0  0.0  0.00  0.00  0.00  0.00     9
 28 APR    6 Emergence       25   0.00   2.1    1  4.4  0.00  0.01  0.00  0.00     1
 12 MAY   20 End Juveni     129   0.27   7.8    4  3.4  0.00  0.00  0.00  0.00     2
 20 MAY   28 Floral Ini     484   0.81  10.7   18  3.6  0.00  0.00  0.00  0.00     3
 28 JUN   67 75% Silkin    7165   3.85  22.4  147  2.1  0.07  0.00  0.00  0.00     4
  8 JUL   77 Beg Gr Fil    7870   2.86  22.4  147  1.9  0.66  0.00  0.00  0.00     5
 22 AUG  122 End Gr Fil    9093   0.42  22.4  147  1.6  0.88  0.00  0.00  0.00     6
 25 AUG  125 Maturity      9093   0.42  22.4  147  1.6  1.00  0.00  0.00  0.00    10
 25 AUG  125 Harvest       9093   0.42  22.4  147  1.6  0.00  0.00  0.00  0.00    10


*MAIN GROWTH AND DEVELOPMENT VARIABLES

@     VARIABLE                                         SIMULATED     MEASURED
      --------                                         ---------     --------
      Anthesis day (dap)                                      67          -99
      Physiological maturity day (dap)                       125          -99
      Yield at harvest maturity (kg [dm]/ha)                2408          -99
      Number at maturity (no/m2)                            1546          -99
      Unit wt at maturity (g [dm]/unit)                   0.1558          -99
      Number at maturity (no/unit)                         249.3          -99
      Tops weight at maturity (kg [dm]/ha)                  9093          -99
      By-product produced (stalk) at maturity (kg[dm]/ha    6754          -99
      Leaf area index, maximum                              4.13          -99
      Harvest index at maturity                            0.265          -99
      Grain N at maturity (kg/ha)                             45          -99
      Tops N at maturity (kg/ha)                             147          -99
      Stem N at maturity (kg/ha)                             102          -99
      Grain N at maturity (%)                                1.9          -99
      Tops weight at anthesis (kg [dm]/ha)                  7071          -99
      Tops N at anthesis (kg/ha)                             145          -99
      Leaf number per stem at maturity                     22.36          -99
      Emergence day (dap)                                      6          -99


*ENVIRONMENTAL AND STRESS FACTORS

 |-----Development Phase------|--------------------------------------Environment--------------------------------------|-----------------Stress-----------------|
                              |---------------Average--------------|-----Cumulative-----|--------Count of days--------|          (0=Min, 1=Max Stress)         |
                         Time  Temp  Temp  Temp Solar Photop                Evapo    Pot TMIN TMIN TMAX TMAX TMAX RAIN|----Water----|---Nitrogen--|-Phosphorus-|
                         Span   Max   Min  Mean   Rad  [day]    CO2   Rain  Trans     ET   <    <    >    >    >    >   Photo         Photo         Photo
                         days    邂    邂    邂 MJ/m2     hr    ppm     mm     mm     mm  0邂  2邂 30邂 32邂 34邂  0mm  synth Growth  synth Growth  synth Growth
----------------------------------------------------------------------------------------------------------------------------------------------------------------
 Emergence-End Juvenile    14  28.9  19.6  24.2  14.9  24.00  372.5    7.3   27.2   56.8    0    0    4    0    0    3  0.000  0.003  0.003  0.007  0.000  0.000
 End Juvenil-Floral Init    8  28.0  20.3  24.1  13.2  24.00  372.6    8.3   11.5   27.4    0    0    1    0    0    2  0.000  0.000  0.000  0.001  0.000  0.000
 Floral Init-End Lf Grow   39  30.2  18.8  24.5  16.2  24.00  372.8  102.6  142.9  152.8    0    0   24    6    0   15  0.029  0.053  0.000  0.000  0.000  0.000
 End Lf Grth-Beg Grn Fil   10  29.6  19.3  24.4  17.3  24.00  372.9   10.8   18.6   40.6    0    0    5    1    0    3  0.562  0.642  0.000  0.000  0.000  0.000
 Grain Filling Phase       45  31.2  18.2  24.7  18.5  24.00  373.1   34.6   46.7  210.2    0    0   33   17    4    7  0.849  0.877  0.000  0.000  0.000  0.000


 Planting to Harvest      125  30.2  18.9  24.5  16.7  24.00  372.9  222.1  267.7  524.7    0    0   72   24    4   36  0.384  0.408  0.000  0.001  0.000  0.000
----------------------------------------------------------------------------------------------------------------------------------------------------------------


*Resource Productivity
 Growing season length: 125 days 

 Precipitation during growing season       222.1 mm[rain]
   Dry Matter Productivity                  4.09 kg[DM]/m3[rain]          =   40.9 kg[DM]/ha per mm[rain]
   Yield Productivity                       1.08 kg[grain yield]/m3[rain] =   10.8 kg[yield]/ha per mm[rain]

 Evapotranspiration during growing season  267.7 mm[ET]
   Dry Matter Productivity                  3.40 kg[DM]/m3[ET]            =   34.0 kg[DM]/ha per mm[ET]
   Yield Productivity                       0.90 kg[grain yield]/m3[ET]   =    9.0 kg[yield]/ha per mm[ET]

 Transpiration during growing season       153.7 mm[EP]
   Dry Matter Productivity                  5.91 kg[DM]/m3[EP]            =   59.1 kg[DM]/ha per mm[EP]
   Yield Productivity                       1.57 kg[grain yield]/m3[EP]   =   15.7 kg[yield]/ha per mm[EP]

 N applied during growing season            161. kg[N applied]/ha
   Dry Matter Productivity                  56.5 kg[DM]/kg[N applied]
   Yield Productivity                       15.0 kg[yield]/kg[N applied]

 N uptake during growing season              164 kg[N uptake]/ha
   Dry Matter Productivity                  55.4 kg[DM]/kg[N uptake]
   Yield Productivity                       14.7 kg[yield]/kg[N uptake]

--------------------------------------------------------------------------------------------------------------

                     Maize YIELD :     2408 kg/ha    [Dry weight] 

**************************************************************************************************************

*DSSAT Cropping System Model Ver. 4.6.1.000 -release      OCT 02, 2017; 13:55:34
                                                                                
*RUN   6        : P04/27                    MZCER046 ANBU2002    6              
 MODEL          : MZCER046 - Maize                                              
 EXPERIMENT     : ANBU2002 MZ  Analisis a침os de bajo rendimiento Buga          
 DATA PATH      : C:\DSSAT46\maize\                                             
 TREATMENT  6   : P04/27                    MZCER046                            
                                                                                
                                                                                
 CROP           : Maize            CULTIVAR : FNC3056          ECOTYPE :IB0001  
 STARTING DATE  : MAR 28 2002                                                   
 PLANTING DATE  : APR 27 2002        PLANTS/m2 :  6.2     ROW SPACING :  80.cm  
 WEATHER        : CUNI   2002                                                   
 SOIL           : CCBUGA2017     TEXTURE : CL    -   Suelo Buga MADR Fase I     
 SOIL INITIAL C : DEPTH: 90cm EXTR. H2O: 83.9mm  NO3:151.4kg/ha  NH4: 62.4kg/ha 
 WATER BALANCE  : RAINFED                                                       
 IRRIGATION     : NOT IRRIGATED                                                 
 NITROGEN BAL.  : SOIL-N & N-UPTAKE SIMULATION; NO N-FIXATION                   
 N-FERTILIZER   :      161 kg/ha IN     5 APPLICATIONS                          
 RESIDUE/MANURE : INITIAL :     0 kg/ha ;       0 kg/ha IN     0 APPLICATIONS   
 ENVIRONM. OPT. : DAYL=    0.00  SRAD=    0.00  TMAX=    0.00  TMIN=    0.00    
                  RAIN=    0.00  CO2 =    0.00  DEW =    0.00  WIND=    0.00    
 SIMULATION OPT : WATER   :Y  NITROGEN:Y  N-FIX:N  PHOSPH :N  PESTS  :N         
                  PHOTO   :C  ET      :R  INFIL:S  HYDROL :R  SOM    :G         
                  CO2 372ppm  NSWIT   :1  EVAP :S  SOIL   :2  STEMP  :D         
 MANAGEMENT OPT : PLANTING:R  IRRIG   :N  FERT :D  RESIDUE:R  HARVEST:M         
                  WEATHER :M  TILLAGE :N                                        
                                                                                
*SUMMARY OF SOIL AND GENETIC INPUT PARAMETERS                                   
                                                                                
   SOIL LOWER UPPER   SAT  EXTR  INIT   ROOT   BULK     pH    NO3    NH4    ORG 
  DEPTH LIMIT LIMIT    SW    SW    SW   DIST   DENS                          C  
   cm   cm3/cm3    cm3/cm3    cm3/cm3         g/cm3         ugN/g  ugN/g     %  
------------------------------------------------------------------------------- 
  0-  5 0.215 0.331 0.341 0.116 0.319   1.00   1.68   6.70  11.90   4.21   0.75 
  5- 15 0.215 0.331 0.341 0.116 0.319   1.00   1.68   6.70  11.90   4.21   0.75 
 15- 25 0.215 0.331 0.341 0.116 0.319   1.00   1.68   6.70  11.90   4.21   0.75 
 25- 35 0.181 0.291 0.364 0.110 0.331   0.50   1.61   7.20  12.15   4.32   0.53 
 35- 45 0.181 0.291 0.364 0.110 0.344   0.50   1.61   7.20  12.40   4.44   0.53 
 45- 67 0.096 0.169 0.404 0.073 0.290   0.27   1.51   7.00  10.67   4.47   0.05 
 67- 90 0.096 0.169 0.404 0.073 0.195   0.27   1.51   7.00   7.63   4.53   0.05 
                                                                                
TOT- 90  13.3  21.7  34.0   8.4  25.6  <--cm   -  kg/ha-->  151.4   62.4  51964 
SOIL ALBEDO    : 0.09      EVAPORATION LIMIT : 6.00         MIN. FACTOR  : 1.00 
RUNOFF CURVE # :76.00      DRAINAGE RATE     : 0.60         FERT. FACTOR : 1.00 
                                                                                
 Maize      CULTIVAR :CI0003-FNC3056            ECOTYPE :IB0001                 
 P1     : 233.00  P2     : 0.5000  P5     : 976.00                              
 G2     : 956.00  G3     :  7.500  PHINT  : 45.600                              


*SIMULATED CROP AND SOIL STATUS AT MAIN DEVELOPMENT STAGES

 RUN NO.     6     P04/27                  

        CROP GROWTH     BIOMASS         LEAF   CROP N     STRESS      STRESS                                           
   DATE  AGE STAGE        kg/ha    LAI   NUM  kg/ha  %   H2O  Nitr Phos1 Phos2  RSTG                                   
 ------  --- ----------   -----  -----  ----  ---  ---  ----  ----  ----  ----  ----                                   
 28 MAR    0 Start Sim        0   0.00   0.0    0  0.0  0.00  0.00  0.00  0.00     7
 27 APR    0 Sowing           0   0.00   0.0    0  0.0  0.00  0.00  0.00  0.00     8
 28 APR    1 Germinate        0   0.00   0.0    0  0.0  0.00  0.00  0.00  0.00     9
  3 MAY    6 Emergence       25   0.00   2.1    1  4.4  0.00  0.01  0.00  0.00     1
 17 MAY   20 End Juveni     126   0.26   7.7    4  3.5  0.00  0.00  0.00  0.00     2
 25 MAY   28 Floral Ini     413   0.71  10.7   15  3.6  0.01  0.00  0.00  0.00     3
  3 JUL   67 75% Silkin    6741   3.62  22.3  142  2.1  0.07  0.00  0.00  0.00     4
 13 JUL   77 Beg Gr Fil    7063   2.51  22.3  142  2.0  0.81  0.00  0.00  0.00     5
 27 AUG  122 End Gr Fil    8069   0.36  22.3  142  1.8  0.88  0.00  0.00  0.00     6
 30 AUG  125 Maturity      8069   0.36  22.3  142  1.8  0.36  0.00  0.00  0.00    10
 30 AUG  125 Harvest       8069   0.36  22.3  142  1.8  0.00  0.00  0.00  0.00    10


*MAIN GROWTH AND DEVELOPMENT VARIABLES

@     VARIABLE                                         SIMULATED     MEASURED
      --------                                         ---------     --------
      Anthesis day (dap)                                      67          -99
      Physiological maturity day (dap)                       125          -99
      Yield at harvest maturity (kg [dm]/ha)                2075          -99
      Number at maturity (no/m2)                            1147          -99
      Unit wt at maturity (g [dm]/unit)                   0.1810          -99
      Number at maturity (no/unit)                         184.9          -99
      Tops weight at maturity (kg [dm]/ha)                  8069          -99
      By-product produced (stalk) at maturity (kg[dm]/ha    6057          -99
      Leaf area index, maximum                              3.85          -99
      Harvest index at maturity                            0.257          -99
      Grain N at maturity (kg/ha)                             39          -99
      Tops N at maturity (kg/ha)                             142          -99
      Stem N at maturity (kg/ha)                             103          -99
      Grain N at maturity (%)                                1.9          -99
      Tops weight at anthesis (kg [dm]/ha)                  6650          -99
      Tops N at anthesis (kg/ha)                             138          -99
      Leaf number per stem at maturity                     22.31          -99
      Emergence day (dap)                                      6          -99


*ENVIRONMENTAL AND STRESS FACTORS

 |-----Development Phase------|--------------------------------------Environment--------------------------------------|-----------------Stress-----------------|
                              |---------------Average--------------|-----Cumulative-----|--------Count of days--------|          (0=Min, 1=Max Stress)         |
                         Time  Temp  Temp  Temp Solar Photop                Evapo    Pot TMIN TMIN TMAX TMAX TMAX RAIN|----Water----|---Nitrogen--|-Phosphorus-|
                         Span   Max   Min  Mean   Rad  [day]    CO2   Rain  Trans     ET   <    <    >    >    >    >   Photo         Photo         Photo
                         days    邂    邂    邂 MJ/m2     hr    ppm     mm     mm     mm  0邂  2邂 30邂 32邂 34邂  0mm  synth Growth  synth Growth  synth Growth
----------------------------------------------------------------------------------------------------------------------------------------------------------------
 Emergence-End Juvenile    14  28.1  20.0  24.1  14.3  24.00  372.5    1.6   11.8   53.9    0    0    1    0    0    2  0.000  0.000  0.002  0.005  0.000  0.000
 End Juvenil-Floral Init    8  29.7  19.5  24.6  14.0  24.00  372.7   28.2   17.2   29.7    0    0    4    1    0    4  0.000  0.011  0.000  0.001  0.000  0.000
 Floral Init-End Lf Grow   39  30.1  18.9  24.5  16.4  24.00  372.8   88.4  142.1  155.2    0    0   23    6    0   13  0.025  0.047  0.000  0.000  0.000  0.000
 End Lf Grth-Beg Grn Fil   10  30.2  18.9  24.6  17.2  24.00  372.9    6.6   14.7   40.8    0    0    6    1    0    4  0.697  0.798  0.000  0.000  0.000  0.000
 Grain Filling Phase       45  31.2  18.3  24.7  18.7  24.00  373.2   39.3   45.5  213.6    0    0   33   16    4    8  0.859  0.884  0.000  0.000  0.000  0.000


 Planting to Harvest      125  30.2  18.9  24.5  16.8  23.99  372.9  185.5  257.4  528.5    0    0   72   25    4   37  0.382  0.410  0.000  0.001  0.000  0.000
----------------------------------------------------------------------------------------------------------------------------------------------------------------


*Resource Productivity
 Growing season length: 125 days 

 Precipitation during growing season       185.5 mm[rain]
   Dry Matter Productivity                  4.35 kg[DM]/m3[rain]          =   43.5 kg[DM]/ha per mm[rain]
   Yield Productivity                       1.12 kg[grain yield]/m3[rain] =   11.2 kg[yield]/ha per mm[rain]

 Evapotranspiration during growing season  257.4 mm[ET]
   Dry Matter Productivity                  3.13 kg[DM]/m3[ET]            =   31.3 kg[DM]/ha per mm[ET]
   Yield Productivity                       0.81 kg[grain yield]/m3[ET]   =    8.1 kg[yield]/ha per mm[ET]

 Transpiration during growing season       149.0 mm[EP]
   Dry Matter Productivity                  5.42 kg[DM]/m3[EP]            =   54.2 kg[DM]/ha per mm[EP]
   Yield Productivity                       1.39 kg[grain yield]/m3[EP]   =   13.9 kg[yield]/ha per mm[EP]

 N applied during growing season            161. kg[N applied]/ha
   Dry Matter Productivity                  50.1 kg[DM]/kg[N applied]
   Yield Productivity                       12.9 kg[yield]/kg[N applied]

 N uptake during growing season              160 kg[N uptake]/ha
   Dry Matter Productivity                  50.4 kg[DM]/kg[N uptake]
   Yield Productivity                       13.0 kg[yield]/kg[N uptake]

--------------------------------------------------------------------------------------------------------------

                     Maize YIELD :     2075 kg/ha    [Dry weight] 

**************************************************************************************************************

*DSSAT Cropping System Model Ver. 4.6.1.000 -release      OCT 02, 2017; 13:55:34
                                                                                
*RUN   7        : P05/02                    MZCER046 ANBU2002    7              
 MODEL          : MZCER046 - Maize                                              
 EXPERIMENT     : ANBU2002 MZ  Analisis a침os de bajo rendimiento Buga          
 DATA PATH      : C:\DSSAT46\maize\                                             
 TREATMENT  7   : P05/02                    MZCER046                            
                                                                                
                                                                                
 CROP           : Maize            CULTIVAR : FNC3056          ECOTYPE :IB0001  
 STARTING DATE  : APR  2 2002                                                   
 PLANTING DATE  : MAY  2 2002        PLANTS/m2 :  6.2     ROW SPACING :  80.cm  
 WEATHER        : CUNI   2002                                                   
 SOIL           : CCBUGA2017     TEXTURE : CL    -   Suelo Buga MADR Fase I     
 SOIL INITIAL C : DEPTH: 90cm EXTR. H2O: 83.9mm  NO3:151.4kg/ha  NH4: 62.4kg/ha 
 WATER BALANCE  : RAINFED                                                       
 IRRIGATION     : NOT IRRIGATED                                                 
 NITROGEN BAL.  : SOIL-N & N-UPTAKE SIMULATION; NO N-FIXATION                   
 N-FERTILIZER   :      161 kg/ha IN     5 APPLICATIONS                          
 RESIDUE/MANURE : INITIAL :     0 kg/ha ;       0 kg/ha IN     0 APPLICATIONS   
 ENVIRONM. OPT. : DAYL=    0.00  SRAD=    0.00  TMAX=    0.00  TMIN=    0.00    
                  RAIN=    0.00  CO2 =    0.00  DEW =    0.00  WIND=    0.00    
 SIMULATION OPT : WATER   :Y  NITROGEN:Y  N-FIX:N  PHOSPH :N  PESTS  :N         
                  PHOTO   :C  ET      :R  INFIL:S  HYDROL :R  SOM    :G         
                  CO2 372ppm  NSWIT   :1  EVAP :S  SOIL   :2  STEMP  :D         
 MANAGEMENT OPT : PLANTING:R  IRRIG   :N  FERT :D  RESIDUE:R  HARVEST:M         
                  WEATHER :M  TILLAGE :N                                        
                                                                                
*SUMMARY OF SOIL AND GENETIC INPUT PARAMETERS                                   
                                                                                
   SOIL LOWER UPPER   SAT  EXTR  INIT   ROOT   BULK     pH    NO3    NH4    ORG 
  DEPTH LIMIT LIMIT    SW    SW    SW   DIST   DENS                          C  
   cm   cm3/cm3    cm3/cm3    cm3/cm3         g/cm3         ugN/g  ugN/g     %  
------------------------------------------------------------------------------- 
  0-  5 0.215 0.331 0.341 0.116 0.319   1.00   1.68   6.70  11.90   4.21   0.75 
  5- 15 0.215 0.331 0.341 0.116 0.319   1.00   1.68   6.70  11.90   4.21   0.75 
 15- 25 0.215 0.331 0.341 0.116 0.319   1.00   1.68   6.70  11.90   4.21   0.75 
 25- 35 0.181 0.291 0.364 0.110 0.331   0.50   1.61   7.20  12.15   4.32   0.53 
 35- 45 0.181 0.291 0.364 0.110 0.344   0.50   1.61   7.20  12.40   4.44   0.53 
 45- 67 0.096 0.169 0.404 0.073 0.290   0.27   1.51   7.00  10.67   4.47   0.05 
 67- 90 0.096 0.169 0.404 0.073 0.195   0.27   1.51   7.00   7.63   4.53   0.05 
                                                                                
TOT- 90  13.3  21.7  34.0   8.4  25.6  <--cm   -  kg/ha-->  151.4   62.4  51964 
SOIL ALBEDO    : 0.09      EVAPORATION LIMIT : 6.00         MIN. FACTOR  : 1.00 
RUNOFF CURVE # :76.00      DRAINAGE RATE     : 0.60         FERT. FACTOR : 1.00 
                                                                                
 Maize      CULTIVAR :CI0003-FNC3056            ECOTYPE :IB0001                 
 P1     : 233.00  P2     : 0.5000  P5     : 976.00                              
 G2     : 956.00  G3     :  7.500  PHINT  : 45.600                              


*SIMULATED CROP AND SOIL STATUS AT MAIN DEVELOPMENT STAGES

 RUN NO.     7     P05/02                  

        CROP GROWTH     BIOMASS         LEAF   CROP N     STRESS      STRESS                                           
   DATE  AGE STAGE        kg/ha    LAI   NUM  kg/ha  %   H2O  Nitr Phos1 Phos2  RSTG                                   
 ------  --- ----------   -----  -----  ----  ---  ---  ----  ----  ----  ----  ----                                   
  2 APR    0 Start Sim        0   0.00   0.0    0  0.0  0.00  0.00  0.00  0.00     7
  2 MAY    0 Sowing           0   0.00   0.0    0  0.0  0.00  0.00  0.00  0.00     8
  3 MAY    1 Germinate        0   0.00   0.0    0  0.0  0.00  0.00  0.00  0.00     9
  8 MAY    6 Emergence       25   0.00   2.0    1  4.4  0.00  0.01  0.00  0.00     1
 22 MAY   20 End Juveni     120   0.25   7.8    4  3.6  0.02  0.00  0.00  0.00     2
 30 MAY   28 Floral Ini     333   0.60  10.8   12  3.6  0.00  0.00  0.00  0.00     3
  8 JUL   67 75% Silkin    5667   2.75  22.4  124  2.2  0.18  0.00  0.00  0.00     4
 18 JUL   77 Beg Gr Fil    5641   1.87  22.4  124  2.2  0.81  0.00  0.00  0.00     5
  1 SEP  122 End Gr Fil    6508   0.31  22.4  124  1.9  0.84  0.00  0.00  0.00     6
  4 SEP  125 Maturity      6508   0.31  22.4  124  1.9  0.00  0.00  0.00  0.00    10
  4 SEP  125 Harvest       6508   0.31  22.4  124  1.9  0.00  0.00  0.00  0.00    10


*MAIN GROWTH AND DEVELOPMENT VARIABLES

@     VARIABLE                                         SIMULATED     MEASURED
      --------                                         ---------     --------
      Anthesis day (dap)                                      67          -99
      Physiological maturity day (dap)                       125          -99
      Yield at harvest maturity (kg [dm]/ha)                1268          -99
      Number at maturity (no/m2)                             651          -99
      Unit wt at maturity (g [dm]/unit)                   0.1949          -99
      Number at maturity (no/unit)                         113.4          -99
      Tops weight at maturity (kg [dm]/ha)                  6508          -99
      By-product produced (stalk) at maturity (kg[dm]/ha    5298          -99
      Leaf area index, maximum                              3.39          -99
      Harvest index at maturity                            0.195          -99
      Grain N at maturity (kg/ha)                             24          -99
      Tops N at maturity (kg/ha)                             124          -99
      Stem N at maturity (kg/ha)                              98          -99
      Grain N at maturity (%)                                1.9          -99
      Tops weight at anthesis (kg [dm]/ha)                  5625          -99
      Tops N at anthesis (kg/ha)                             124          -99
      Leaf number per stem at maturity                     22.38          -99
      Emergence day (dap)                                      6          -99


*ENVIRONMENTAL AND STRESS FACTORS

 |-----Development Phase------|--------------------------------------Environment--------------------------------------|-----------------Stress-----------------|
                              |---------------Average--------------|-----Cumulative-----|--------Count of days--------|          (0=Min, 1=Max Stress)         |
                         Time  Temp  Temp  Temp Solar Photop                Evapo    Pot TMIN TMIN TMAX TMAX TMAX RAIN|----Water----|---Nitrogen--|-Phosphorus-|
                         Span   Max   Min  Mean   Rad  [day]    CO2   Rain  Trans     ET   <    <    >    >    >    >   Photo         Photo         Photo
                         days    邂    邂    邂 MJ/m2     hr    ppm     mm     mm     mm  0邂  2邂 30邂 32邂 34邂  0mm  synth Growth  synth Growth  synth Growth
----------------------------------------------------------------------------------------------------------------------------------------------------------------
 Emergence-End Juvenile    14  28.5  20.1  24.3  13.6  24.00  372.6   22.6   13.3   51.5    0    0    2    0    0    5  0.000  0.017  0.002  0.006  0.000  0.000
 End Juvenil-Floral Init    8  30.3  18.5  24.4  15.8  24.00  372.7   22.2   24.4   33.8    0    0    5    2    0    3  0.000  0.000  0.000  0.001  0.000  0.000
 Floral Init-End Lf Grow   39  30.0  18.9  24.5  16.7  24.00  372.8   77.2  131.5  158.4    0    0   23    5    0   13  0.115  0.154  0.000  0.000  0.000  0.000
 End Lf Grth-Beg Grn Fil   10  31.6  18.7  25.1  17.2  24.00  373.0   10.4   12.2   41.8    0    0    8    4    0    3  0.838  0.893  0.000  0.000  0.000  0.000
 Grain Filling Phase       45  31.1  18.3  24.7  18.6  23.86  373.2   39.1   48.6  215.2    0    0   32   15    4   10  0.785  0.820  0.000  0.000  0.000  0.000


 Planting to Harvest      125  30.4  18.8  24.6  17.0  23.84  372.9  178.8  241.5  541.9    0    0   75   29    4   35  0.393  0.425  0.000  0.001  0.000  0.000
----------------------------------------------------------------------------------------------------------------------------------------------------------------


*Resource Productivity
 Growing season length: 125 days 

 Precipitation during growing season       178.8 mm[rain]
   Dry Matter Productivity                  3.64 kg[DM]/m3[rain]          =   36.4 kg[DM]/ha per mm[rain]
   Yield Productivity                       0.71 kg[grain yield]/m3[rain] =    7.1 kg[yield]/ha per mm[rain]

 Evapotranspiration during growing season  241.5 mm[ET]
   Dry Matter Productivity                  2.70 kg[DM]/m3[ET]            =   27.0 kg[DM]/ha per mm[ET]
   Yield Productivity                       0.53 kg[grain yield]/m3[ET]   =    5.3 kg[yield]/ha per mm[ET]

 Transpiration during growing season       130.0 mm[EP]
   Dry Matter Productivity                  5.01 kg[DM]/m3[EP]            =   50.1 kg[DM]/ha per mm[EP]
   Yield Productivity                       0.98 kg[grain yield]/m3[EP]   =    9.8 kg[yield]/ha per mm[EP]

 N applied during growing season            161. kg[N applied]/ha
   Dry Matter Productivity                  40.4 kg[DM]/kg[N applied]
   Yield Productivity                        7.9 kg[yield]/kg[N applied]

 N uptake during growing season              141 kg[N uptake]/ha
   Dry Matter Productivity                  46.2 kg[DM]/kg[N uptake]
   Yield Productivity                        9.0 kg[yield]/kg[N uptake]

--------------------------------------------------------------------------------------------------------------

                     Maize YIELD :     1268 kg/ha    [Dry weight] 

**************************************************************************************************************

*DSSAT Cropping System Model Ver. 4.6.1.000 -release      OCT 02, 2017; 13:55:34
                                                                                
*RUN   8        : P05/07                    MZCER046 ANBU2002    8              
 MODEL          : MZCER046 - Maize                                              
 EXPERIMENT     : ANBU2002 MZ  Analisis a침os de bajo rendimiento Buga          
 DATA PATH      : C:\DSSAT46\maize\                                             
 TREATMENT  8   : P05/07                    MZCER046                            
                                                                                
                                                                                
 CROP           : Maize            CULTIVAR : FNC3056          ECOTYPE :IB0001  
 STARTING DATE  : APR  7 2002                                                   
 PLANTING DATE  : MAY  7 2002        PLANTS/m2 :  6.2     ROW SPACING :  80.cm  
 WEATHER        : CUNI   2002                                                   
 SOIL           : CCBUGA2017     TEXTURE : CL    -   Suelo Buga MADR Fase I     
 SOIL INITIAL C : DEPTH: 90cm EXTR. H2O: 83.9mm  NO3:151.4kg/ha  NH4: 62.4kg/ha 
 WATER BALANCE  : RAINFED                                                       
 IRRIGATION     : NOT IRRIGATED                                                 
 NITROGEN BAL.  : SOIL-N & N-UPTAKE SIMULATION; NO N-FIXATION                   
 N-FERTILIZER   :      161 kg/ha IN     5 APPLICATIONS                          
 RESIDUE/MANURE : INITIAL :     0 kg/ha ;       0 kg/ha IN     0 APPLICATIONS   
 ENVIRONM. OPT. : DAYL=    0.00  SRAD=    0.00  TMAX=    0.00  TMIN=    0.00    
                  RAIN=    0.00  CO2 =    0.00  DEW =    0.00  WIND=    0.00    
 SIMULATION OPT : WATER   :Y  NITROGEN:Y  N-FIX:N  PHOSPH :N  PESTS  :N         
                  PHOTO   :C  ET      :R  INFIL:S  HYDROL :R  SOM    :G         
                  CO2 372ppm  NSWIT   :1  EVAP :S  SOIL   :2  STEMP  :D         
 MANAGEMENT OPT : PLANTING:R  IRRIG   :N  FERT :D  RESIDUE:R  HARVEST:M         
                  WEATHER :M  TILLAGE :N                                        
                                                                                
*SUMMARY OF SOIL AND GENETIC INPUT PARAMETERS                                   
                                                                                
   SOIL LOWER UPPER   SAT  EXTR  INIT   ROOT   BULK     pH    NO3    NH4    ORG 
  DEPTH LIMIT LIMIT    SW    SW    SW   DIST   DENS                          C  
   cm   cm3/cm3    cm3/cm3    cm3/cm3         g/cm3         ugN/g  ugN/g     %  
------------------------------------------------------------------------------- 
  0-  5 0.215 0.331 0.341 0.116 0.319   1.00   1.68   6.70  11.90   4.21   0.75 
  5- 15 0.215 0.331 0.341 0.116 0.319   1.00   1.68   6.70  11.90   4.21   0.75 
 15- 25 0.215 0.331 0.341 0.116 0.319   1.00   1.68   6.70  11.90   4.21   0.75 
 25- 35 0.181 0.291 0.364 0.110 0.331   0.50   1.61   7.20  12.15   4.32   0.53 
 35- 45 0.181 0.291 0.364 0.110 0.344   0.50   1.61   7.20  12.40   4.44   0.53 
 45- 67 0.096 0.169 0.404 0.073 0.290   0.27   1.51   7.00  10.67   4.47   0.05 
 67- 90 0.096 0.169 0.404 0.073 0.195   0.27   1.51   7.00   7.63   4.53   0.05 
                                                                                
TOT- 90  13.3  21.7  34.0   8.4  25.6  <--cm   -  kg/ha-->  151.4   62.4  51964 
SOIL ALBEDO    : 0.09      EVAPORATION LIMIT : 6.00         MIN. FACTOR  : 1.00 
RUNOFF CURVE # :76.00      DRAINAGE RATE     : 0.60         FERT. FACTOR : 1.00 
                                                                                
 Maize      CULTIVAR :CI0003-FNC3056            ECOTYPE :IB0001                 
 P1     : 233.00  P2     : 0.5000  P5     : 976.00                              
 G2     : 956.00  G3     :  7.500  PHINT  : 45.600                              


*SIMULATED CROP AND SOIL STATUS AT MAIN DEVELOPMENT STAGES

 RUN NO.     8     P05/07                  

        CROP GROWTH     BIOMASS         LEAF   CROP N     STRESS      STRESS                                           
   DATE  AGE STAGE        kg/ha    LAI   NUM  kg/ha  %   H2O  Nitr Phos1 Phos2  RSTG                                   
 ------  --- ----------   -----  -----  ----  ---  ---  ----  ----  ----  ----  ----                                   
  7 APR    0 Start Sim        0   0.00   0.0    0  0.0  0.00  0.00  0.00  0.00     7
  7 MAY    0 Sowing           0   0.00   0.0    0  0.0  0.00  0.00  0.00  0.00     8
  8 MAY    1 Germinate        0   0.00   0.0    0  0.0  0.00  0.00  0.00  0.00     9
 13 MAY    6 Emergence       25   0.00   2.0    1  4.4  0.00  0.01  0.00  0.00     1
 27 MAY   20 End Juveni      92   0.20   7.8    3  3.5  0.00  0.00  0.00  0.00     2
  4 JUN   28 Floral Ini     347   0.62  10.8   13  3.6  0.00  0.00  0.00  0.00     3
 13 JUL   67 75% Silkin    4826   2.14  22.4  111  2.3  0.30  0.00  0.00  0.00     4
 22 JUL   76 Beg Gr Fil    4885   1.50  22.4  111  2.3  0.81  0.00  0.00  0.00     5
  6 SEP  122 End Gr Fil    5991   0.27  22.4  111  1.9  0.79  0.00  0.00  0.00     6
[...]
 NITROGEN BAL.  : SOIL-N & N-UPTAKE SIMULATION; NO N-FIXATION                   
 N-FERTILIZER   :      161 kg/ha IN     5 APPLICATIONS                          
 RESIDUE/MANURE : INITIAL :     0 kg/ha ;       0 kg/ha IN     0 APPLICATIONS   
 ENVIRONM. OPT. : DAYL=    0.00  SRAD=    0.00  TMAX=    0.00  TMIN=    0.00    
                  RAIN=    0.00  CO2 =    0.00  DEW =    0.00  WIND=    0.00    
 SIMULATION OPT : WATER   :Y  NITROGEN:Y  N-FIX:N  PHOSPH :N  PESTS  :N         
                  PHOTO   :C  ET      :R  INFIL:S  HYDROL :R  SOM    :G         
                  CO2 374ppm  NSWIT   :1  EVAP :S  SOIL   :2  STEMP  :D         
 MANAGEMENT OPT : PLANTING:R  IRRIG   :N  FERT :D  RESIDUE:R  HARVEST:M         
                  WEATHER :M  TILLAGE :N                                        
                                                                                
*SUMMARY OF SOIL AND GENETIC INPUT PARAMETERS                                   
                                                                                
   SOIL LOWER UPPER   SAT  EXTR  INIT   ROOT   BULK     pH    NO3    NH4    ORG 
  DEPTH LIMIT LIMIT    SW    SW    SW   DIST   DENS                          C  
   cm   cm3/cm3    cm3/cm3    cm3/cm3         g/cm3         ugN/g  ugN/g     %  
------------------------------------------------------------------------------- 
  0-  5 0.215 0.331 0.341 0.116 0.319   1.00   1.68   6.70  11.90   4.21   0.75 
  5- 15 0.215 0.331 0.341 0.116 0.319   1.00   1.68   6.70  11.90   4.21   0.75 
 15- 25 0.215 0.331 0.341 0.116 0.319   1.00   1.68   6.70  11.90   4.21   0.75 
 25- 35 0.181 0.291 0.364 0.110 0.331   0.50   1.61   7.20  12.15   4.32   0.53 
 35- 45 0.181 0.291 0.364 0.110 0.344   0.50   1.61   7.20  12.40   4.44   0.53 
 45- 67 0.096 0.169 0.404 0.073 0.290   0.27   1.51   7.00  10.67   4.47   0.05 
 67- 90 0.096 0.169 0.404 0.073 0.195   0.27   1.51   7.00   7.63   4.53   0.05 
                                                                                
TOT- 90  13.3  21.7  34.0   8.4  25.6  <--cm   -  kg/ha-->  151.4   62.4  51964 
SOIL ALBEDO    : 0.09      EVAPORATION LIMIT : 6.00         MIN. FACTOR  : 1.00 
RUNOFF CURVE # :76.00      DRAINAGE RATE     : 0.60         FERT. FACTOR : 1.00 
                                                                                
 Maize      CULTIVAR :CI0003-FNC3056            ECOTYPE :IB0001                 
 P1     : 233.00  P2     : 0.5000  P5     : 976.00                              
 G2     : 956.00  G3     :  7.500  PHINT  : 45.600                              


*SIMULATED CROP AND SOIL STATUS AT MAIN DEVELOPMENT STAGES

 RUN NO.    35     P12/14                  

        CROP GROWTH     BIOMASS         LEAF   CROP N     STRESS      STRESS                                           
   DATE  AGE STAGE        kg/ha    LAI   NUM  kg/ha  %   H2O  Nitr Phos1 Phos2  RSTG                                   
 ------  --- ----------   -----  -----  ----  ---  ---  ----  ----  ----  ----  ----                                   
 14 NOV    0 Start Sim        0   0.00   0.0    0  0.0  0.00  0.00  0.00  0.00     7
 14 DEC    0 Sowing           0   0.00   0.0    0  0.0  0.00  0.00  0.00  0.00     8
 15 DEC    1 Germinate        0   0.00   0.0    0  0.0  0.00  0.00  0.00  0.00     9
 20 DEC    6 Emergence       25   0.00   2.0    1  4.4  0.00  0.01  0.00  0.00     1
  2 JAN   19 End Juveni     108   0.23   7.6    4  3.3  0.00  0.00  0.00  0.00     2
  6 JAN   23 Floral Ini     238   0.45   9.1    9  3.7  0.00  0.00  0.00  0.00     3
  8 FEB   56 75% Silkin    3046   1.49  19.2   71  2.3  0.44  0.00  0.00  0.00     4
 18 FEB   66 Beg Gr Fil    3127   1.06  19.2   71  2.3  0.76  0.00  0.00  0.00     5
  2 APR  109 End Gr Fil    4553   0.37  19.2   71  1.6  0.50  0.00  0.00  0.00     6
  5 APR  112 Maturity      4553   0.37  19.2   71  1.6  0.00  0.00  0.00  0.00    10
  5 APR  112 Harvest       4553   0.37  19.2   71  1.6  0.00  0.00  0.00  0.00    10


*MAIN GROWTH AND DEVELOPMENT VARIABLES

@     VARIABLE                                         SIMULATED     MEASURED
      --------                                         ---------     --------
      Anthesis day (dap)                                      56          -99
      Physiological maturity day (dap)                       112          -99
      Yield at harvest maturity (kg [dm]/ha)                1448          -99
      Number at maturity (no/m2)                             620          -99
      Unit wt at maturity (g [dm]/unit)                   0.2336          -99
      Number at maturity (no/unit)                         109.3          -99
      Tops weight at maturity (kg [dm]/ha)                  4553          -99
      By-product produced (stalk) at maturity (kg[dm]/ha    3146          -99
      Leaf area index, maximum                              2.07          -99
      Harvest index at maturity                            0.318          -99
      Grain N at maturity (kg/ha)                             26          -99
      Tops N at maturity (kg/ha)                              71          -99
      Stem N at maturity (kg/ha)                              43          -99
      Grain N at maturity (%)                                1.8          -99
      Tops weight at anthesis (kg [dm]/ha)                  3032          -99
      Tops N at anthesis (kg/ha)                              71          -99
      Leaf number per stem at maturity                     19.15          -99
      Emergence day (dap)                                      6          -99


*ENVIRONMENTAL AND STRESS FACTORS

 |-----Development Phase------|--------------------------------------Environment--------------------------------------|-----------------Stress-----------------|
                              |---------------Average--------------|-----Cumulative-----|--------Count of days--------|          (0=Min, 1=Max Stress)         |
                         Time  Temp  Temp  Temp Solar Photop                Evapo    Pot TMIN TMIN TMAX TMAX TMAX RAIN|----Water----|---Nitrogen--|-Phosphorus-|
                         Span   Max   Min  Mean   Rad  [day]    CO2   Rain  Trans     ET   <    <    >    >    >    >   Photo         Photo         Photo
                         days    邂    邂    邂 MJ/m2     hr    ppm     mm     mm     mm  0邂  2邂 30邂 32邂 34邂  0mm  synth Growth  synth Growth  synth Growth
----------------------------------------------------------------------------------------------------------------------------------------------------------------
 Emergence-End Juvenile    13  29.9  19.2  24.5  14.6   0.00  374.3    0.0   14.2   52.0    0    0    5    3    0    0  0.000  0.000  0.002  0.005  0.000  0.000
 End Juvenil-Floral Init    4  32.0  18.8  25.4  16.9   0.00  374.3    0.0    4.8   18.3    0    0    4    1    0    0  0.000  0.000  0.000  0.001  0.000  0.000
 Floral Init-End Lf Grow   33  31.3  18.6  24.9  16.1   0.00  374.4   13.6   68.7  132.4    0    0   25   13    1    2  0.303  0.420  0.000  0.000  0.000  0.000
 End Lf Grth-Beg Grn Fil   10  32.2  19.6  25.9  10.5   0.00  374.6   13.7   13.6   26.8    0    0   10    4    1    4  0.651  0.747  0.000  0.000  0.000  0.000
 Grain Filling Phase       43  32.0  19.1  25.5  16.1   7.32  374.8   91.0   67.6  185.8    0    0   34   24    4   13  0.498  0.519  0.000  0.000  0.000  0.000


 Planting to Harvest      112  31.5  19.0  25.3  15.2   3.25  374.6  159.8  193.4  448.5    0    0   86   48    7   23  0.339  0.390  0.000  0.001  0.000  0.000
----------------------------------------------------------------------------------------------------------------------------------------------------------------


*Resource Productivity
 Growing season length: 112 days 

 Precipitation during growing season       159.8 mm[rain]
   Dry Matter Productivity                  2.85 kg[DM]/m3[rain]          =   28.5 kg[DM]/ha per mm[rain]
   Yield Productivity                       0.91 kg[grain yield]/m3[rain] =    9.1 kg[yield]/ha per mm[rain]

 Evapotranspiration during growing season  193.4 mm[ET]
   Dry Matter Productivity                  2.35 kg[DM]/m3[ET]            =   23.5 kg[DM]/ha per mm[ET]
   Yield Productivity                       0.75 kg[grain yield]/m3[ET]   =    7.5 kg[yield]/ha per mm[ET]

 Transpiration during growing season        89.7 mm[EP]
   Dry Matter Productivity                  5.08 kg[DM]/m3[EP]            =   50.8 kg[DM]/ha per mm[EP]
   Yield Productivity                       1.62 kg[grain yield]/m3[EP]   =   16.2 kg[yield]/ha per mm[EP]

 N applied during growing season            161. kg[N applied]/ha
   Dry Matter Productivity                  28.3 kg[DM]/kg[N applied]
   Yield Productivity                        9.0 kg[yield]/kg[N applied]

 N uptake during growing season               79 kg[N uptake]/ha
   Dry Matter Productivity                  57.6 kg[DM]/kg[N uptake]
   Yield Productivity                       18.3 kg[yield]/kg[N uptake]

--------------------------------------------------------------------------------------------------------------

                     Maize YIELD :     1448 kg/ha    [Dry weight] 

**************************************************************************************************************

*DSSAT Cropping System Model Ver. 4.6.1.000 -release      OCT 02, 2017; 13:55:39
                                                                                
*RUN  36        : P12/19                    MZCER046 ANBU2002   36              
 MODEL          : MZCER046 - Maize                                              
 EXPERIMENT     : ANBU2002 MZ  Analisis a침os de bajo rendimiento Buga          
 DATA PATH      : C:\DSSAT46\maize\                                             
 TREATMENT 36   : P12/19                    MZCER046                            
                                                                                
                                                                                
 CROP           : Maize            CULTIVAR : FNC3056          ECOTYPE :IB0001  
 STARTING DATE  : NOV 19 2002                                                   
 PLANTING DATE  : DEC 19 2002        PLANTS/m2 :  6.2     ROW SPACING :  80.cm  
 WEATHER        : CUNI   2002                                                   
 SOIL           : CCBUGA2017     TEXTURE : CL    -   Suelo Buga MADR Fase I     
 SOIL INITIAL C : DEPTH: 90cm EXTR. H2O: 83.9mm  NO3:151.4kg/ha  NH4: 62.4kg/ha 
 WATER BALANCE  : RAINFED                                                       
 IRRIGATION     : NOT IRRIGATED                                                 
 NITROGEN BAL.  : SOIL-N & N-UPTAKE SIMULATION; NO N-FIXATION                   
 N-FERTILIZER   :      161 kg/ha IN     5 APPLICATIONS                          
 RESIDUE/MANURE : INITIAL :     0 kg/ha ;       0 kg/ha IN     0 APPLICATIONS   
 ENVIRONM. OPT. : DAYL=    0.00  SRAD=    0.00  TMAX=    0.00  TMIN=    0.00    
                  RAIN=    0.00  CO2 =    0.00  DEW =    0.00  WIND=    0.00    
 SIMULATION OPT : WATER   :Y  NITROGEN:Y  N-FIX:N  PHOSPH :N  PESTS  :N         
                  PHOTO   :C  ET      :R  INFIL:S  HYDROL :R  SOM    :G         
                  CO2 374ppm  NSWIT   :1  EVAP :S  SOIL   :2  STEMP  :D         
 MANAGEMENT OPT : PLANTING:R  IRRIG   :N  FERT :D  RESIDUE:R  HARVEST:M         
                  WEATHER :M  TILLAGE :N                                        
                                                                                
*SUMMARY OF SOIL AND GENETIC INPUT PARAMETERS                                   
                                                                                
   SOIL LOWER UPPER   SAT  EXTR  INIT   ROOT   BULK     pH    NO3    NH4    ORG 
  DEPTH LIMIT LIMIT    SW    SW    SW   DIST   DENS                          C  
   cm   cm3/cm3    cm3/cm3    cm3/cm3         g/cm3         ugN/g  ugN/g     %  
------------------------------------------------------------------------------- 
  0-  5 0.215 0.331 0.341 0.116 0.319   1.00   1.68   6.70  11.90   4.21   0.75 
  5- 15 0.215 0.331 0.341 0.116 0.319   1.00   1.68   6.70  11.90   4.21   0.75 
 15- 25 0.215 0.331 0.341 0.116 0.319   1.00   1.68   6.70  11.90   4.21   0.75 
 25- 35 0.181 0.291 0.364 0.110 0.331   0.50   1.61   7.20  12.15   4.32   0.53 
 35- 45 0.181 0.291 0.364 0.110 0.344   0.50   1.61   7.20  12.40   4.44   0.53 
 45- 67 0.096 0.169 0.404 0.073 0.290   0.27   1.51   7.00  10.67   4.47   0.05 
 67- 90 0.096 0.169 0.404 0.073 0.195   0.27   1.51   7.00   7.63   4.53   0.05 
                                                                                
TOT- 90  13.3  21.7  34.0   8.4  25.6  <--cm   -  kg/ha-->  151.4   62.4  51964 
SOIL ALBEDO    : 0.09      EVAPORATION LIMIT : 6.00         MIN. FACTOR  : 1.00 
RUNOFF CURVE # :76.00      DRAINAGE RATE     : 0.60         FERT. FACTOR : 1.00 
                                                                                
 Maize      CULTIVAR :CI0003-FNC3056            ECOTYPE :IB0001                 
 P1     : 233.00  P2     : 0.5000  P5     : 976.00                              
 G2     : 956.00  G3     :  7.500  PHINT  : 45.600                              


*SIMULATED CROP AND SOIL STATUS AT MAIN DEVELOPMENT STAGES

 RUN NO.    36     P12/19                  

        CROP GROWTH     BIOMASS         LEAF   CROP N     STRESS      STRESS                                           
   DATE  AGE STAGE        kg/ha    LAI   NUM  kg/ha  %   H2O  Nitr Phos1 Phos2  RSTG                                   
 ------  --- ----------   -----  -----  ----  ---  ---  ----  ----  ----  ----  ----                                   
 19 NOV    0 Start Sim        0   0.00   0.0    0  0.0  0.00  0.00  0.00  0.00     7
 19 DEC    0 Sowing           0   0.00   0.0    0  0.0  0.00  0.00  0.00  0.00     8
 20 DEC    1 Germinate        0   0.00   0.0    0  0.0  0.00  0.00  0.00  0.00     9
 25 DEC    6 Emergence       25   0.00   2.0    1  4.4  0.00  0.01  0.00  0.00     1
  7 JAN   19 End Juveni     118   0.25   7.7    4  3.4  0.00  0.01  0.00  0.00     2
 11 JAN   23 Floral Ini     263   0.49   9.3   10  3.7  0.00  0.00  0.00  0.00     3
 13 FEB   56 75% Silkin    2991   1.50  19.4   70  2.3  0.45  0.00  0.00  0.00     4
 22 FEB   65 Beg Gr Fil    3082   1.10  19.4   70  2.3  0.78  0.00  0.00  0.00     5
  7 APR  109 End Gr Fil    4837   0.45  19.4   70  1.4  0.41  0.00  0.00  0.00     6
  9 APR  111 Maturity      4837   0.45  19.4   70  1.4  0.00  0.00  0.00  0.00    10
  9 APR  111 Harvest       4837   0.45  19.4   70  1.4  0.00  0.00  0.00  0.00    10


*MAIN GROWTH AND DEVELOPMENT VARIABLES

@     VARIABLE                                         SIMULATED     MEASURED
      --------                                         ---------     --------
      Anthesis day (dap)                                      56          -99
      Physiological maturity day (dap)                       111          -99
      Yield at harvest maturity (kg [dm]/ha)                1632          -99
      Number at maturity (no/m2)                             641          -99
      Unit wt at maturity (g [dm]/unit)                   0.2545          -99
      Number at maturity (no/unit)                         112.2          -99
      Tops weight at maturity (kg [dm]/ha)                  4837          -99
      By-product produced (stalk) at maturity (kg[dm]/ha    3244          -99
      Leaf area index, maximum                              2.09          -99
      Harvest index at maturity                            0.337          -99
      Grain N at maturity (kg/ha)                             29          -99
      Tops N at maturity (kg/ha)                              70          -99
      Stem N at maturity (kg/ha)                              38          -99
      Grain N at maturity (%)                                1.8          -99
      Tops weight at anthesis (kg [dm]/ha)                  2981          -99
      Tops N at anthesis (kg/ha)                              70          -99
      Leaf number per stem at maturity                     19.40          -99
      Emergence day (dap)                                      6          -99


*ENVIRONMENTAL AND STRESS FACTORS

 |-----Development Phase------|--------------------------------------Environment--------------------------------------|-----------------Stress-----------------|
                              |---------------Average--------------|-----Cumulative-----|--------Count of days--------|          (0=Min, 1=Max Stress)         |
                         Time  Temp  Temp  Temp Solar Photop                Evapo    Pot TMIN TMIN TMAX TMAX TMAX RAIN|----Water----|---Nitrogen--|-Phosphorus-|
                         Span   Max   Min  Mean   Rad  [day]    CO2   Rain  Trans     ET   <    <    >    >    >    >   Photo         Photo         Photo
                         days    邂    邂    邂 MJ/m2     hr    ppm     mm     mm     mm  0邂  2邂 30邂 32邂 34邂  0mm  synth Growth  synth Growth  synth Growth
----------------------------------------------------------------------------------------------------------------------------------------------------------------
 Emergence-End Juvenile    13  30.9  19.0  25.0  15.9   0.00  374.3    0.0   10.1   56.8    0    0    9    4    0    0  0.000  0.000  0.003  0.009  0.000  0.000
 End Juvenil-Floral Init    4  31.4  17.8  24.6  17.5   0.00  374.3    0.0    4.6   18.7    0    0    3    1    0    0  0.000  0.000  0.001  0.001  0.000  0.000
 Floral Init-End Lf Grow   33  31.5  18.9  25.2  15.1   0.00  374.5   18.1   68.8  124.7    0    0   26   15    2    4  0.311  0.430  0.000  0.000  0.000  0.000
 End Lf Grth-Beg Grn Fil    9  32.5  19.6  26.0  10.4   0.00  374.7   10.2   13.0   24.1    0    0    9    4    1    3  0.653  0.765  0.000  0.000  0.000  0.000
 Grain Filling Phase       44  32.0  19.1  25.5  16.8   9.04  374.8   90.0   76.0  197.8    0    0   35   26    4   12  0.413  0.427  0.000  0.000  0.000  0.000


 Planting to Harvest      111  31.6  19.0  25.3  15.5   3.91  374.6  123.0  188.0  454.0    0    0   85   51    7   20  0.309  0.359  0.000  0.001  0.000  0.000
----------------------------------------------------------------------------------------------------------------------------------------------------------------


*Resource Productivity
 Growing season length: 111 days 

 Precipitation during growing season       123.0 mm[rain]
   Dry Matter Productivity                  3.93 kg[DM]/m3[rain]          =   39.3 kg[DM]/ha per mm[rain]
   Yield Productivity                       1.33 kg[grain yield]/m3[rain] =   13.3 kg[yield]/ha per mm[rain]

 Evapotranspiration during growing season  188.0 mm[ET]
   Dry Matter Productivity                  2.57 kg[DM]/m3[ET]            =   25.7 kg[DM]/ha per mm[ET]
   Yield Productivity                       0.87 kg[grain yield]/m3[ET]   =    8.7 kg[yield]/ha per mm[ET]

 Transpiration during growing season        97.1 mm[EP]
   Dry Matter Productivity                  4.98 kg[DM]/m3[EP]            =   49.8 kg[DM]/ha per mm[EP]
   Yield Productivity                       1.68 kg[grain yield]/m3[EP]   =   16.8 kg[yield]/ha per mm[EP]

 N applied during growing season            161. kg[N applied]/ha
   Dry Matter Productivity                  30.0 kg[DM]/kg[N applied]
   Yield Productivity                       10.1 kg[yield]/kg[N applied]

 N uptake during growing season               77 kg[N uptake]/ha
   Dry Matter Productivity                  62.8 kg[DM]/kg[N uptake]
   Yield Productivity                       21.2 kg[yield]/kg[N uptake]

--------------------------------------------------------------------------------------------------------------

                     Maize YIELD :     1632 kg/ha    [Dry weight] 

**************************************************************************************************************
