*SIMULATION OVERVIEW FILE

*DSSAT Cropping System Model Ver. 4.6.1.000 -release      OCT 24, 2017; 10:52:21
                                                                                
*RUN   1        : P04/02                    MZCER046 ANBU2009    1              
 MODEL          : MZCER046 - Maize                                              
 EXPERIMENT     : ANBU2009 MZ  Analisis a침os de bajo rendimiento Buga          
 DATA PATH      : C:\DSSAT46\maize\                                             
 TREATMENT  1   : P04/02                    MZCER046                            
                                                                                
                                                                                
 CROP           : Maize            CULTIVAR : DK7088           ECOTYPE :IB0001  
 STARTING DATE  : MAR  3 2009                                                   
 PLANTING DATE  : APR  2 2009        PLANTS/m2 :  6.2     ROW SPACING :  80.cm  
 WEATHER        : CUNI   2009                                                   
 SOIL           : CCBUGA2017     TEXTURE : CL    -   Suelo Buga MADR Fase I     
 SOIL INITIAL C : DEPTH: 90cm EXTR. H2O: 83.9mm  NO3:  0.0kg/ha  NH4:  0.0kg/ha 
 WATER BALANCE  : RAINFED                                                       
 IRRIGATION     : NOT IRRIGATED                                                 
 NITROGEN BAL.  : SOIL-N & N-UPTAKE SIMULATION; NO N-FIXATION                   
 N-FERTILIZER   :      161 kg/ha IN     5 APPLICATIONS                          
 RESIDUE/MANURE : INITIAL :     0 kg/ha ;       0 kg/ha IN     0 APPLICATIONS   
 ENVIRONM. OPT. : DAYL=    0.00  SRAD=    0.00  TMAX=    0.00  TMIN=    0.00    
                  RAIN=    0.00  CO2 =    0.00  DEW =    0.00  WIND=    0.00    
 SIMULATION OPT : WATER   :Y  NITROGEN:Y  N-FIX:N  PHOSPH :N  PESTS  :N         
                  PHOTO   :C  ET      :R  INFIL:S  HYDROL :R  SOM    :G         
                  CO2 387ppm  NSWIT   :1  EVAP :S  SOIL   :2  STEMP  :D         
 MANAGEMENT OPT : PLANTING:R  IRRIG   :N  FERT :D  RESIDUE:R  HARVEST:M         
                  WEATHER :M  TILLAGE :N                                        
                                                                                
*SUMMARY OF SOIL AND GENETIC INPUT PARAMETERS                                   
                                                                                
   SOIL LOWER UPPER   SAT  EXTR  INIT   ROOT   BULK     pH    NO3    NH4    ORG 
  DEPTH LIMIT LIMIT    SW    SW    SW   DIST   DENS                          C  
   cm   cm3/cm3    cm3/cm3    cm3/cm3         g/cm3         ugN/g  ugN/g     %  
------------------------------------------------------------------------------- 
  0-  5 0.215 0.331 0.341 0.116 0.331   1.00   1.68   6.70   0.00   0.00   0.75 
  5- 15 0.215 0.331 0.341 0.116 0.331   1.00   1.68   6.70   0.00   0.00   0.75 
 15- 25 0.215 0.331 0.341 0.116 0.331   1.00   1.68   6.70   0.00   0.00   0.75 
 25- 35 0.181 0.291 0.364 0.110 0.291   0.50   1.61   7.20   0.00   0.00   0.53 
 35- 45 0.181 0.291 0.364 0.110 0.291   0.50   1.61   7.20   0.00   0.00   0.53 
 45- 67 0.096 0.169 0.404 0.073 0.169   0.27   1.51   7.00   0.00   0.00   0.05 
 67- 90 0.096 0.169 0.404 0.073 0.169   0.27   1.51   7.00   0.00   0.00   0.05 
                                                                                
TOT- 90  13.3  21.7  34.0   8.4  21.7  <--cm   -  kg/ha-->    0.0    0.0  51964 
SOIL ALBEDO    : 0.09      EVAPORATION LIMIT : 6.00         MIN. FACTOR  : 1.00 
RUNOFF CURVE # :76.00      DRAINAGE RATE     : 0.60         FERT. FACTOR : 1.00 
                                                                                
 Maize      CULTIVAR :CI0004-DK7088             ECOTYPE :IB0001                 
 P1     : 229.00  P2     : 0.3000  P5     : 971.00                              
 G2     : 957.00  G3     :  7.500  PHINT  : 45.000                              


*SIMULATED CROP AND SOIL STATUS AT MAIN DEVELOPMENT STAGES

 RUN NO.     1     P04/02                  

        CROP GROWTH     BIOMASS         LEAF   CROP N     STRESS      STRESS                                           
   DATE  AGE STAGE        kg/ha    LAI   NUM  kg/ha  %   H2O  Nitr Phos1 Phos2  RSTG                                   
 ------  --- ----------   -----  -----  ----  ---  ---  ----  ----  ----  ----  ----                                   
  3 MAR    0 Start Sim        0   0.00   0.0    0  0.0  0.00  0.00  0.00  0.00     7
  2 APR    0 Sowing           0   0.00   0.0    0  0.0  0.00  0.00  0.00  0.00     8
  3 APR    1 Germinate        0   0.00   0.0    0  0.0  0.00  0.00  0.00  0.00     9
  8 APR    6 Emergence       25   0.00   2.0    1  4.4  0.00  0.01  0.00  0.00     1
 20 APR   18 End Juveni      87   0.19   7.6    3  3.2  0.00  0.00  0.00  0.00     2
 26 APR   24 Floral Ini     292   0.54  10.1   11  3.6  0.00  0.00  0.00  0.00     3
 31 MAY   59 75% Silkin    5065   2.57  21.1  105  2.1  0.22  0.08  0.00  0.00     4
 10 JUN   69 Beg Gr Fil    7379   2.56  21.1  106  1.4  0.06  0.00  0.00  0.00     5
 26 JUL  115 End Gr Fil   15954   1.42  21.1  184  1.2  0.21  0.11  0.00  0.00     6
 29 JUL  118 Maturity     15954   1.42  21.1  184  1.2  0.91  0.56  0.00  0.00    10
 29 JUL  118 Harvest      15954   1.42  21.1  184  1.2  0.00  0.00  0.00  0.00    10


*MAIN GROWTH AND DEVELOPMENT VARIABLES

@     VARIABLE                                         SIMULATED     MEASURED
      --------                                         ---------     --------
      Anthesis day (dap)                                      59          -99
      Physiological maturity day (dap)                       118          -99
      Yield at harvest maturity (kg [dm]/ha)                9369          -99
      Number at maturity (no/m2)                            2980          -99
      Unit wt at maturity (g [dm]/unit)                   0.3144          -99
      Number at maturity (no/unit)                         480.7          -99
      Tops weight at maturity (kg [dm]/ha)                 15954          -99
      By-product produced (stalk) at maturity (kg[dm]/ha    6640          -99
      Leaf area index, maximum                              3.02          -99
      Harvest index at maturity                            0.587          -99
      Grain N at maturity (kg/ha)                            153          -99
      Tops N at maturity (kg/ha)                             184          -99
      Stem N at maturity (kg/ha)                              31          -99
      Grain N at maturity (%)                                1.6          -99
      Tops weight at anthesis (kg [dm]/ha)                  4846          -99
      Tops N at anthesis (kg/ha)                             104          -99
      Leaf number per stem at maturity                     21.12          -99
      Emergence day (dap)                                      6          -99


*ENVIRONMENTAL AND STRESS FACTORS

 |-----Development Phase------|--------------------------------------Environment--------------------------------------|-----------------Stress-----------------|
                              |---------------Average--------------|-----Cumulative-----|--------Count of days--------|          (0=Min, 1=Max Stress)         |
                         Time  Temp  Temp  Temp Solar Photop                Evapo    Pot TMIN TMIN TMAX TMAX TMAX RAIN|----Water----|---Nitrogen--|-Phosphorus-|
                         Span   Max   Min  Mean   Rad  [day]    CO2   Rain  Trans     ET   <    <    >    >    >    >   Photo         Photo         Photo
                         days    邂    邂    邂 MJ/m2     hr    ppm     mm     mm     mm  0邂  2邂 30邂 32邂 34邂  0mm  synth Growth  synth Growth  synth Growth
----------------------------------------------------------------------------------------------------------------------------------------------------------------
 Emergence-End Juvenile    12  31.4  19.6  25.5  17.0  21.85  386.8   18.3   27.8   57.7    0    0   11    3    0    6  0.000  0.000  0.002  0.005  0.000  0.000
 End Juvenil-Floral Init    6  31.7  19.6  25.6  15.3  24.00  386.9    0.0    8.8   25.2    0    0    4    1    1    0  0.000  0.000  0.001  0.002  0.000  0.000
 Floral Init-End Lf Grow   35  31.4  19.0  25.2  16.1  24.00  387.0   92.4  109.7  140.4    0    0   25   10    1   17  0.162  0.224  0.032  0.079  0.000  0.000
 End Lf Grth-Beg Grn Fil   10  31.7  19.4  25.6  17.7  24.00  387.1   84.2   42.7   43.4    0    0    8    3    1    5  0.014  0.057  0.000  0.000  0.000  0.000
 Grain Filling Phase       46  30.0  18.3  24.2  15.9  24.00  387.3   99.8  145.3  175.9    0    0   20    6    0   11  0.161  0.195  0.040  0.098  0.000  0.000


 Planting to Harvest      118  30.9  18.8  24.9  16.6  23.42  387.1  303.7  352.6  493.9    0    0   75   27    3   40  0.134  0.170  0.032  0.076  0.000  0.000
----------------------------------------------------------------------------------------------------------------------------------------------------------------


*Resource Productivity
 Growing season length: 118 days 

 Precipitation during growing season       303.7 mm[rain]
   Dry Matter Productivity                  5.25 kg[DM]/m3[rain]          =   52.5 kg[DM]/ha per mm[rain]
   Yield Productivity                       3.08 kg[grain yield]/m3[rain] =   30.8 kg[yield]/ha per mm[rain]

 Evapotranspiration during growing season  352.6 mm[ET]
   Dry Matter Productivity                  4.52 kg[DM]/m3[ET]            =   45.2 kg[DM]/ha per mm[ET]
   Yield Productivity                       2.66 kg[grain yield]/m3[ET]   =   26.6 kg[yield]/ha per mm[ET]

 Transpiration during growing season       235.9 mm[EP]
   Dry Matter Productivity                  6.76 kg[DM]/m3[EP]            =   67.6 kg[DM]/ha per mm[EP]
   Yield Productivity                       3.97 kg[grain yield]/m3[EP]   =   39.7 kg[yield]/ha per mm[EP]

 N applied during growing season            161. kg[N applied]/ha
   Dry Matter Productivity                  99.1 kg[DM]/kg[N applied]
   Yield Productivity                       58.2 kg[yield]/kg[N applied]

 N uptake during growing season              198 kg[N uptake]/ha
   Dry Matter Productivity                  80.6 kg[DM]/kg[N uptake]
   Yield Productivity                       47.3 kg[yield]/kg[N uptake]

--------------------------------------------------------------------------------------------------------------

                     Maize YIELD :     9369 kg/ha    [Dry weight] 

**************************************************************************************************************

*DSSAT Cropping System Model Ver. 4.6.1.000 -release      OCT 24, 2017; 10:52:22
                                                                                
*RUN   2        : P04/07                    MZCER046 ANBU2009    2              
 MODEL          : MZCER046 - Maize                                              
 EXPERIMENT     : ANBU2009 MZ  Analisis a침os de bajo rendimiento Buga          
 DATA PATH      : C:\DSSAT46\maize\                                             
 TREATMENT  2   : P04/07                    MZCER046                            
                                                                                
                                                                                
 CROP           : Maize            CULTIVAR : DK7088           ECOTYPE :IB0001  
 STARTING DATE  : MAR  8 2009                                                   
 PLANTING DATE  : APR  7 2009        PLANTS/m2 :  6.2     ROW SPACING :  80.cm  
 WEATHER        : CUNI   2009                                                   
 SOIL           : CCBUGA2017     TEXTURE : CL    -   Suelo Buga MADR Fase I     
 SOIL INITIAL C : DEPTH: 90cm EXTR. H2O: 83.9mm  NO3:  0.0kg/ha  NH4:  0.0kg/ha 
 WATER BALANCE  : RAINFED                                                       
 IRRIGATION     : NOT IRRIGATED                                                 
 NITROGEN BAL.  : SOIL-N & N-UPTAKE SIMULATION; NO N-FIXATION                   
 N-FERTILIZER   :      161 kg/ha IN     5 APPLICATIONS                          
 RESIDUE/MANURE : INITIAL :     0 kg/ha ;       0 kg/ha IN     0 APPLICATIONS   
 ENVIRONM. OPT. : DAYL=    0.00  SRAD=    0.00  TMAX=    0.00  TMIN=    0.00    
                  RAIN=    0.00  CO2 =    0.00  DEW =    0.00  WIND=    0.00    
 SIMULATION OPT : WATER   :Y  NITROGEN:Y  N-FIX:N  PHOSPH :N  PESTS  :N         
                  PHOTO   :C  ET      :R  INFIL:S  HYDROL :R  SOM    :G         
                  CO2 387ppm  NSWIT   :1  EVAP :S  SOIL   :2  STEMP  :D         
 MANAGEMENT OPT : PLANTING:R  IRRIG   :N  FERT :D  RESIDUE:R  HARVEST:M         
                  WEATHER :M  TILLAGE :N                                        
                                                                                
*SUMMARY OF SOIL AND GENETIC INPUT PARAMETERS                                   
                                                                                
   SOIL LOWER UPPER   SAT  EXTR  INIT   ROOT   BULK     pH    NO3    NH4    ORG 
  DEPTH LIMIT LIMIT    SW    SW    SW   DIST   DENS                          C  
   cm   cm3/cm3    cm3/cm3    cm3/cm3         g/cm3         ugN/g  ugN/g     %  
------------------------------------------------------------------------------- 
  0-  5 0.215 0.331 0.341 0.116 0.331   1.00   1.68   6.70   0.00   0.00   0.75 
  5- 15 0.215 0.331 0.341 0.116 0.331   1.00   1.68   6.70   0.00   0.00   0.75 
 15- 25 0.215 0.331 0.341 0.116 0.331   1.00   1.68   6.70   0.00   0.00   0.75 
 25- 35 0.181 0.291 0.364 0.110 0.291   0.50   1.61   7.20   0.00   0.00   0.53 
 35- 45 0.181 0.291 0.364 0.110 0.291   0.50   1.61   7.20   0.00   0.00   0.53 
 45- 67 0.096 0.169 0.404 0.073 0.169   0.27   1.51   7.00   0.00   0.00   0.05 
 67- 90 0.096 0.169 0.404 0.073 0.169   0.27   1.51   7.00   0.00   0.00   0.05 
                                                                                
TOT- 90  13.3  21.7  34.0   8.4  21.7  <--cm   -  kg/ha-->    0.0    0.0  51964 
SOIL ALBEDO    : 0.09      EVAPORATION LIMIT : 6.00         MIN. FACTOR  : 1.00 
RUNOFF CURVE # :76.00      DRAINAGE RATE     : 0.60         FERT. FACTOR : 1.00 
                                                                                
 Maize      CULTIVAR :CI0004-DK7088             ECOTYPE :IB0001                 
 P1     : 229.00  P2     : 0.3000  P5     : 971.00                              
 G2     : 957.00  G3     :  7.500  PHINT  : 45.000                              


*SIMULATED CROP AND SOIL STATUS AT MAIN DEVELOPMENT STAGES

 RUN NO.     2     P04/07                  

        CROP GROWTH     BIOMASS         LEAF   CROP N     STRESS      STRESS                                           
   DATE  AGE STAGE        kg/ha    LAI   NUM  kg/ha  %   H2O  Nitr Phos1 Phos2  RSTG                                   
 ------  --- ----------   -----  -----  ----  ---  ---  ----  ----  ----  ----  ----                                   
  8 MAR    0 Start Sim        0   0.00   0.0    0  0.0  0.00  0.00  0.00  0.00     7
  7 APR    0 Sowing           0   0.00   0.0    0  0.0  0.00  0.00  0.00  0.00     8
  8 APR    1 Germinate        0   0.00   0.0    0  0.0  0.00  0.00  0.00  0.00     9
 13 APR    6 Emergence       25   0.00   2.1    1  4.4  0.00  0.01  0.00  0.00     1
 25 APR   18 End Juveni     100   0.21   7.6    3  3.2  0.00  0.00  0.00  0.00     2
  2 MAY   25 Floral Ini     345   0.61  10.5   12  3.6  0.00  0.00  0.00  0.00     3
  7 JUN   61 75% Silkin    5613   2.75  21.9  111  2.0  0.20  0.12  0.00  0.00     4
 18 JUN   72 Beg Gr Fil    7921   2.75  21.9  115  1.5  0.00  0.00  0.00  0.00     5
  3 AUG  118 End Gr Fil   14598   1.28  21.9  179  1.2  0.38  0.02  0.00  0.00     6
  5 AUG  120 Maturity     14598   1.28  21.9  179  1.2  0.96  0.18  0.00  0.00    10
  5 AUG  120 Harvest      14598   1.28  21.9  179  1.2  0.00  0.00  0.00  0.00    10


*MAIN GROWTH AND DEVELOPMENT VARIABLES

@     VARIABLE                                         SIMULATED     MEASURED
      --------                                         ---------     --------
      Anthesis day (dap)                                      61          -99
      Physiological maturity day (dap)                       120          -99
      Yield at harvest maturity (kg [dm]/ha)                7965          -99
      Number at maturity (no/m2)                            2806          -99
      Unit wt at maturity (g [dm]/unit)                   0.2839          -99
      Number at maturity (no/unit)                         452.5          -99
      Tops weight at maturity (kg [dm]/ha)                 14598          -99
      By-product produced (stalk) at maturity (kg[dm]/ha    6690          -99
      Leaf area index, maximum                              2.75          -99
      Harvest index at maturity                            0.546          -99
      Grain N at maturity (kg/ha)                            138          -99
      Tops N at maturity (kg/ha)                             179          -99
      Stem N at maturity (kg/ha)                              41          -99
      Grain N at maturity (%)                                1.7          -99
      Tops weight at anthesis (kg [dm]/ha)                  5375          -99
      Tops N at anthesis (kg/ha)                             110          -99
      Leaf number per stem at maturity                     21.89          -99
      Emergence day (dap)                                      6          -99


*ENVIRONMENTAL AND STRESS FACTORS

 |-----Development Phase------|--------------------------------------Environment--------------------------------------|-----------------Stress-----------------|
                              |---------------Average--------------|-----Cumulative-----|--------Count of days--------|          (0=Min, 1=Max Stress)         |
                         Time  Temp  Temp  Temp Solar Photop                Evapo    Pot TMIN TMIN TMAX TMAX TMAX RAIN|----Water----|---Nitrogen--|-Phosphorus-|
                         Span   Max   Min  Mean   Rad  [day]    CO2   Rain  Trans     ET   <    <    >    >    >    >   Photo         Photo         Photo
                         days    邂    邂    邂 MJ/m2     hr    ppm     mm     mm     mm  0邂  2邂 30邂 32邂 34邂  0mm  synth Growth  synth Growth  synth Growth
----------------------------------------------------------------------------------------------------------------------------------------------------------------
 Emergence-End Juvenile    12  31.7  19.5  25.6  16.4  23.74  386.9    8.2   18.3   55.8    0    0   10    3    0    2  0.000  0.000  0.002  0.004  0.000  0.000
 End Juvenil-Floral Init    7  31.7  20.0  25.9  17.1  24.00  386.9   37.1   15.1   33.2    0    0    4    4    2    5  0.000  0.000  0.001  0.001  0.000  0.000
 Floral Init-End Lf Grow   36  31.5  18.8  25.2  16.4  24.00  387.0   95.0  125.0  146.9    0    0   27   10    1   15  0.118  0.197  0.047  0.118  0.000  0.000
 End Lf Grth-Beg Grn Fil   11  30.0  19.1  24.5  15.8  24.00  387.1   71.7   41.4   41.6    0    0    5    0    0    6  0.000  0.000  0.000  0.000  0.000  0.000
 Grain Filling Phase       46  30.6  18.1  24.4  16.4  24.00  387.3   72.6  123.2  181.6    0    0   24   12    2    7  0.322  0.360  0.008  0.021  0.000  0.000


 Planting to Harvest      120  31.0  18.8  24.9  16.4  23.73  387.1  303.7  339.3  496.7    0    0   76   31    7   40  0.174  0.213  0.019  0.047  0.000  0.000
----------------------------------------------------------------------------------------------------------------------------------------------------------------


*Resource Productivity
 Growing season length: 120 days 

 Precipitation during growing season       303.7 mm[rain]
   Dry Matter Productivity                  4.81 kg[DM]/m3[rain]          =   48.1 kg[DM]/ha per mm[rain]
   Yield Productivity                       2.62 kg[grain yield]/m3[rain] =   26.2 kg[yield]/ha per mm[rain]

 Evapotranspiration during growing season  339.3 mm[ET]
   Dry Matter Productivity                  4.30 kg[DM]/m3[ET]            =   43.0 kg[DM]/ha per mm[ET]
   Yield Productivity                       2.35 kg[grain yield]/m3[ET]   =   23.5 kg[yield]/ha per mm[ET]

 Transpiration during growing season       226.3 mm[EP]
   Dry Matter Productivity                  6.45 kg[DM]/m3[EP]            =   64.5 kg[DM]/ha per mm[EP]
   Yield Productivity                       3.52 kg[grain yield]/m3[EP]   =   35.2 kg[yield]/ha per mm[EP]

 N applied during growing season            161. kg[N applied]/ha
   Dry Matter Productivity                  90.7 kg[DM]/kg[N applied]
   Yield Productivity                       49.5 kg[yield]/kg[N applied]

 N uptake during growing season              196 kg[N uptake]/ha
   Dry Matter Productivity                  74.5 kg[DM]/kg[N uptake]
   Yield Productivity                       40.6 kg[yield]/kg[N uptake]

--------------------------------------------------------------------------------------------------------------

                     Maize YIELD :     7965 kg/ha    [Dry weight] 

**************************************************************************************************************

*DSSAT Cropping System Model Ver. 4.6.1.000 -release      OCT 24, 2017; 10:52:22
                                                                                
*RUN   3        : P04/12                    MZCER046 ANBU2009    3              
 MODEL          : MZCER046 - Maize                                              
 EXPERIMENT     : ANBU2009 MZ  Analisis a침os de bajo rendimiento Buga          
 DATA PATH      : C:\DSSAT46\maize\                                             
 TREATMENT  3   : P04/12                    MZCER046                            
                                                                                
                                                                                
 CROP           : Maize            CULTIVAR : DK7088           ECOTYPE :IB0001  
 STARTING DATE  : MAR 13 2009                                                   
 PLANTING DATE  : APR 12 2009        PLANTS/m2 :  6.2     ROW SPACING :  80.cm  
 WEATHER        : CUNI   2009                                                   
 SOIL           : CCBUGA2017     TEXTURE : CL    -   Suelo Buga MADR Fase I     
 SOIL INITIAL C : DEPTH: 90cm EXTR. H2O: 83.9mm  NO3:  0.0kg/ha  NH4:  0.0kg/ha 
 WATER BALANCE  : RAINFED                                                       
 IRRIGATION     : NOT IRRIGATED                                                 
 NITROGEN BAL.  : SOIL-N & N-UPTAKE SIMULATION; NO N-FIXATION                   
 N-FERTILIZER   :      161 kg/ha IN     5 APPLICATIONS                          
 RESIDUE/MANURE : INITIAL :     0 kg/ha ;       0 kg/ha IN     0 APPLICATIONS   
 ENVIRONM. OPT. : DAYL=    0.00  SRAD=    0.00  TMAX=    0.00  TMIN=    0.00    
                  RAIN=    0.00  CO2 =    0.00  DEW =    0.00  WIND=    0.00    
 SIMULATION OPT : WATER   :Y  NITROGEN:Y  N-FIX:N  PHOSPH :N  PESTS  :N         
                  PHOTO   :C  ET      :R  INFIL:S  HYDROL :R  SOM    :G         
                  CO2 387ppm  NSWIT   :1  EVAP :S  SOIL   :2  STEMP  :D         
 MANAGEMENT OPT : PLANTING:R  IRRIG   :N  FERT :D  RESIDUE:R  HARVEST:M         
                  WEATHER :M  TILLAGE :N                                        
                                                                                
*SUMMARY OF SOIL AND GENETIC INPUT PARAMETERS                                   
                                                                                
   SOIL LOWER UPPER   SAT  EXTR  INIT   ROOT   BULK     pH    NO3    NH4    ORG 
  DEPTH LIMIT LIMIT    SW    SW    SW   DIST   DENS                          C  
   cm   cm3/cm3    cm3/cm3    cm3/cm3         g/cm3         ugN/g  ugN/g     %  
------------------------------------------------------------------------------- 
  0-  5 0.215 0.331 0.341 0.116 0.331   1.00   1.68   6.70   0.00   0.00   0.75 
  5- 15 0.215 0.331 0.341 0.116 0.331   1.00   1.68   6.70   0.00   0.00   0.75 
 15- 25 0.215 0.331 0.341 0.116 0.331   1.00   1.68   6.70   0.00   0.00   0.75 
 25- 35 0.181 0.291 0.364 0.110 0.291   0.50   1.61   7.20   0.00   0.00   0.53 
 35- 45 0.181 0.291 0.364 0.110 0.291   0.50   1.61   7.20   0.00   0.00   0.53 
 45- 67 0.096 0.169 0.404 0.073 0.169   0.27   1.51   7.00   0.00   0.00   0.05 
 67- 90 0.096 0.169 0.404 0.073 0.169   0.27   1.51   7.00   0.00   0.00   0.05 
                                                                                
TOT- 90  13.3  21.7  34.0   8.4  21.7  <--cm   -  kg/ha-->    0.0    0.0  51964 
SOIL ALBEDO    : 0.09      EVAPORATION LIMIT : 6.00         MIN. FACTOR  : 1.00 
RUNOFF CURVE # :76.00      DRAINAGE RATE     : 0.60         FERT. FACTOR : 1.00 
                                                                                
 Maize      CULTIVAR :CI0004-DK7088             ECOTYPE :IB0001                 
 P1     : 229.00  P2     : 0.3000  P5     : 971.00                              
 G2     : 957.00  G3     :  7.500  PHINT  : 45.000                              


*SIMULATED CROP AND SOIL STATUS AT MAIN DEVELOPMENT STAGES

 RUN NO.     3     P04/12                  

        CROP GROWTH     BIOMASS         LEAF   CROP N     STRESS      STRESS                                           
   DATE  AGE STAGE        kg/ha    LAI   NUM  kg/ha  %   H2O  Nitr Phos1 Phos2  RSTG                                   
 ------  --- ----------   -----  -----  ----  ---  ---  ----  ----  ----  ----  ----                                   
 13 MAR    0 Start Sim        0   0.00   0.0    0  0.0  0.00  0.00  0.00  0.00     7
 12 APR    0 Sowing           0   0.00   0.0    0  0.0  0.00  0.00  0.00  0.00     8
 13 APR    1 Germinate        0   0.00   0.0    0  0.0  0.00  0.00  0.00  0.00     9
 18 APR    6 Emergence       25   0.00   2.1    1  4.4  0.00  0.01  0.00  0.00     1
 30 APR   18 End Juveni      85   0.19   7.6    3  3.6  0.00  0.00  0.00  0.00     2
  7 MAY   25 Floral Ini     278   0.52  10.4   10  3.6  0.00  0.00  0.00  0.00     3
 12 JUN   61 75% Silkin    5520   2.73  21.9  109  2.0  0.13  0.17  0.00  0.00     4
 23 JUN   72 Beg Gr Fil    7706   2.73  21.9  113  1.5  0.00  0.00  0.00  0.00     5
  7 AUG  117 End Gr Fil   13208   1.08  21.9  162  1.2  0.47  0.00  0.00  0.00     6
 10 AUG  120 Maturity     13208   1.08  21.9  162  1.2  0.94  0.00  0.00  0.00    10
 10 AUG  120 Harvest      13208   1.08  21.9  162  1.2  0.00  0.00  0.00  0.00    10


*MAIN GROWTH AND DEVELOPMENT VARIABLES

@     VARIABLE                                         SIMULATED     MEASURED
      --------                                         ---------     --------
      Anthesis day (dap)                                      61          -99
      Physiological maturity day (dap)                       120          -99
      Yield at harvest maturity (kg [dm]/ha)                6922          -99
      Number at maturity (no/m2)                            2639          -99
      Unit wt at maturity (g [dm]/unit)                   0.2623          -99
      Number at maturity (no/unit)                         425.7          -99
      Tops weight at maturity (kg [dm]/ha)                 13208          -99
      By-product produced (stalk) at maturity (kg[dm]/ha    6340          -99
      Leaf area index, maximum                              2.73          -99
      Harvest index at maturity                            0.524          -99
      Grain N at maturity (kg/ha)                            122          -99
      Tops N at maturity (kg/ha)                             162          -99
      Stem N at maturity (kg/ha)                              40          -99
      Grain N at maturity (%)                                1.8          -99
      Tops weight at anthesis (kg [dm]/ha)                  5346          -99
      Tops N at anthesis (kg/ha)                             107          -99
      Leaf number per stem at maturity                     21.90          -99
      Emergence day (dap)                                      6          -99


*ENVIRONMENTAL AND STRESS FACTORS

 |-----Development Phase------|--------------------------------------Environment--------------------------------------|-----------------Stress-----------------|
                              |---------------Average--------------|-----Cumulative-----|--------Count of days--------|          (0=Min, 1=Max Stress)         |
                         Time  Temp  Temp  Temp Solar Photop                Evapo    Pot TMIN TMIN TMAX TMAX TMAX RAIN|----Water----|---Nitrogen--|-Phosphorus-|
                         Span   Max   Min  Mean   Rad  [day]    CO2   Rain  Trans     ET   <    <    >    >    >    >   Photo         Photo         Photo
                         days    邂    邂    邂 MJ/m2     hr    ppm     mm     mm     mm  0邂  2邂 30邂 32邂 34邂  0mm  synth Growth  synth Growth  synth Growth
----------------------------------------------------------------------------------------------------------------------------------------------------------------
 Emergence-End Juvenile    12  32.0  20.0  26.0  15.4  24.00  386.9   15.8   14.2   52.5    0    0    8    4    2    3  0.000  0.000  0.002  0.004  0.000  0.000
 End Juvenil-Floral Init    7  29.9  19.5  24.7  15.7  24.00  386.9   35.2   29.1   30.0    0    0    4    1    0    5  0.000  0.000  0.001  0.001  0.000  0.000
 Floral Init-End Lf Grow   36  31.5  18.9  25.2  16.5  24.00  387.1  132.1  121.9  148.7    0    0   27   10    1   16  0.057  0.125  0.079  0.167  0.000  0.000
 End Lf Grth-Beg Grn Fil   11  29.2  18.5  23.8  14.8  24.00  387.2   26.5   38.3   38.5    0    0    3    0    0    4  0.000  0.000  0.000  0.000  0.000  0.000
 Grain Filling Phase       45  31.1  18.2  24.6  16.9  24.00  387.4   66.8  110.1  185.8    0    0   27   14    4    5  0.405  0.448  0.000  0.000  0.000  0.000


 Planting to Harvest      120  31.1  18.7  24.9  16.6  23.95  387.2  291.6  332.2  502.9    0    0   77   32    7   37  0.192  0.229  0.024  0.051  0.000  0.000
----------------------------------------------------------------------------------------------------------------------------------------------------------------


*Resource Productivity
 Growing season length: 120 days 

 Precipitation during growing season       291.6 mm[rain]
   Dry Matter Productivity                  4.53 kg[DM]/m3[rain]          =   45.3 kg[DM]/ha per mm[rain]
   Yield Productivity                       2.37 kg[grain yield]/m3[rain] =   23.7 kg[yield]/ha per mm[rain]

 Evapotranspiration during growing season  332.2 mm[ET]
   Dry Matter Productivity                  3.98 kg[DM]/m3[ET]            =   39.8 kg[DM]/ha per mm[ET]
   Yield Productivity                       2.08 kg[grain yield]/m3[ET]   =   20.8 kg[yield]/ha per mm[ET]

 Transpiration during growing season       215.1 mm[EP]
   Dry Matter Productivity                  6.14 kg[DM]/m3[EP]            =   61.4 kg[DM]/ha per mm[EP]
   Yield Productivity                       3.22 kg[grain yield]/m3[EP]   =   32.2 kg[yield]/ha per mm[EP]

 N applied during growing season            161. kg[N applied]/ha
   Dry Matter Productivity                  82.0 kg[DM]/kg[N applied]
   Yield Productivity                       43.0 kg[yield]/kg[N applied]

 N uptake during growing season              179 kg[N uptake]/ha
   Dry Matter Productivity                  73.8 kg[DM]/kg[N uptake]
   Yield Productivity                       38.7 kg[yield]/kg[N uptake]

--------------------------------------------------------------------------------------------------------------

                     Maize YIELD :     6922 kg/ha    [Dry weight] 

**************************************************************************************************************

*DSSAT Cropping System Model Ver. 4.6.1.000 -release      OCT 24, 2017; 10:52:22
                                                                                
*RUN   4        : P04/17                    MZCER046 ANBU2009    4              
 MODEL          : MZCER046 - Maize                                              
 EXPERIMENT     : ANBU2009 MZ  Analisis a침os de bajo rendimiento Buga          
 DATA PATH      : C:\DSSAT46\maize\                                             
 TREATMENT  4   : P04/17                    MZCER046                            
                                                                                
                                                                                
 CROP           : Maize            CULTIVAR : DK7088           ECOTYPE :IB0001  
 STARTING DATE  : MAR 18 2009                                                   
 PLANTING DATE  : APR 17 2009        PLANTS/m2 :  6.2     ROW SPACING :  80.cm  
 WEATHER        : CUNI   2009                                                   
 SOIL           : CCBUGA2017     TEXTURE : CL    -   Suelo Buga MADR Fase I     
 SOIL INITIAL C : DEPTH: 90cm EXTR. H2O: 83.9mm  NO3:  0.0kg/ha  NH4:  0.0kg/ha 
 WATER BALANCE  : RAINFED                                                       
 IRRIGATION     : NOT IRRIGATED                                                 
 NITROGEN BAL.  : SOIL-N & N-UPTAKE SIMULATION; NO N-FIXATION                   
 N-FERTILIZER   :      161 kg/ha IN     5 APPLICATIONS                          
 RESIDUE/MANURE : INITIAL :     0 kg/ha ;       0 kg/ha IN     0 APPLICATIONS   
 ENVIRONM. OPT. : DAYL=    0.00  SRAD=    0.00  TMAX=    0.00  TMIN=    0.00    
                  RAIN=    0.00  CO2 =    0.00  DEW =    0.00  WIND=    0.00    
 SIMULATION OPT : WATER   :Y  NITROGEN:Y  N-FIX:N  PHOSPH :N  PESTS  :N         
                  PHOTO   :C  ET      :R  INFIL:S  HYDROL :R  SOM    :G         
                  CO2 387ppm  NSWIT   :1  EVAP :S  SOIL   :2  STEMP  :D         
 MANAGEMENT OPT : PLANTING:R  IRRIG   :N  FERT :D  RESIDUE:R  HARVEST:M         
                  WEATHER :M  TILLAGE :N                                        
                                                                                
*SUMMARY OF SOIL AND GENETIC INPUT PARAMETERS                                   
                                                                                
   SOIL LOWER UPPER   SAT  EXTR  INIT   ROOT   BULK     pH    NO3    NH4    ORG 
  DEPTH LIMIT LIMIT    SW    SW    SW   DIST   DENS                          C  
   cm   cm3/cm3    cm3/cm3    cm3/cm3         g/cm3         ugN/g  ugN/g     %  
------------------------------------------------------------------------------- 
  0-  5 0.215 0.331 0.341 0.116 0.331   1.00   1.68   6.70   0.00   0.00   0.75 
  5- 15 0.215 0.331 0.341 0.116 0.331   1.00   1.68   6.70   0.00   0.00   0.75 
 15- 25 0.215 0.331 0.341 0.116 0.331   1.00   1.68   6.70   0.00   0.00   0.75 
 25- 35 0.181 0.291 0.364 0.110 0.291   0.50   1.61   7.20   0.00   0.00   0.53 
 35- 45 0.181 0.291 0.364 0.110 0.291   0.50   1.61   7.20   0.00   0.00   0.53 
 45- 67 0.096 0.169 0.404 0.073 0.169   0.27   1.51   7.00   0.00   0.00   0.05 
 67- 90 0.096 0.169 0.404 0.073 0.169   0.27   1.51   7.00   0.00   0.00   0.05 
                                                                                
TOT- 90  13.3  21.7  34.0   8.4  21.7  <--cm   -  kg/ha-->    0.0    0.0  51964 
SOIL ALBEDO    : 0.09      EVAPORATION LIMIT : 6.00         MIN. FACTOR  : 1.00 
RUNOFF CURVE # :76.00      DRAINAGE RATE     : 0.60         FERT. FACTOR : 1.00 
                                                                                
 Maize      CULTIVAR :CI0004-DK7088             ECOTYPE :IB0001                 
 P1     : 229.00  P2     : 0.3000  P5     : 971.00                              
 G2     : 957.00  G3     :  7.500  PHINT  : 45.000                              


*SIMULATED CROP AND SOIL STATUS AT MAIN DEVELOPMENT STAGES

 RUN NO.     4     P04/17                  

        CROP GROWTH     BIOMASS         LEAF   CROP N     STRESS      STRESS                                           
   DATE  AGE STAGE        kg/ha    LAI   NUM  kg/ha  %   H2O  Nitr Phos1 Phos2  RSTG                                   
 ------  --- ----------   -----  -----  ----  ---  ---  ----  ----  ----  ----  ----                                   
 18 MAR    0 Start Sim        0   0.00   0.0    0  0.0  0.00  0.00  0.00  0.00     7
 17 APR    0 Sowing           0   0.00   0.0    0  0.0  0.00  0.00  0.00  0.00     8
 18 APR    1 Germinate        0   0.00   0.0    0  0.0  0.00  0.00  0.00  0.00     9
 23 APR    6 Emergence       25   0.00   2.1    1  4.4  0.00  0.01  0.00  0.00     1
  5 MAY   18 End Juveni      69   0.15   7.5    2  3.2  0.00  0.00  0.00  0.00     2
 12 MAY   25 Floral Ini     320   0.58  10.3   12  3.6  0.00  0.00  0.00  0.00     3
 17 JUN   61 75% Silkin    5638   3.00  21.5  112  2.0  0.06  0.14  0.00  0.00     4
 28 JUN   72 Beg Gr Fil    7751   3.00  21.5  113  1.5  0.00  0.00  0.00  0.00     5
 11 AUG  116 End Gr Fil   12690   1.03  21.5  152  1.2  0.53  0.00  0.00  0.00     6
 14 AUG  119 Maturity     12690   1.03  21.5  152  1.2  0.95  0.00  0.00  0.00    10
 14 AUG  119 Harvest      12690   1.03  21.5  152  1.2  0.00  0.00  0.00  0.00    10


*MAIN GROWTH AND DEVELOPMENT VARIABLES

@     VARIABLE                                         SIMULATED     MEASURED
      --------                                         ---------     --------
      Anthesis day (dap)                                      61          -99
      Physiological maturity day (dap)                       119          -99
      Yield at harvest maturity (kg [dm]/ha)                6106          -99
      Number at maturity (no/m2)                            2641          -99
      Unit wt at maturity (g [dm]/unit)                   0.2312          -99
      Number at maturity (no/unit)                         425.9          -99
      Tops weight at maturity (kg [dm]/ha)                 12690          -99
      By-product produced (stalk) at maturity (kg[dm]/ha    6640          -99
      Leaf area index, maximum                              3.00          -99
      Harvest index at maturity                            0.481          -99
      Grain N at maturity (kg/ha)                            108          -99
      Tops N at maturity (kg/ha)                             152          -99
      Stem N at maturity (kg/ha)                              44          -99
      Grain N at maturity (%)                                1.8          -99
      Tops weight at anthesis (kg [dm]/ha)                  5396          -99
      Tops N at anthesis (kg/ha)                             109          -99
      Leaf number per stem at maturity                     21.48          -99
      Emergence day (dap)                                      6          -99


*ENVIRONMENTAL AND STRESS FACTORS

 |-----Development Phase------|--------------------------------------Environment--------------------------------------|-----------------Stress-----------------|
                              |---------------Average--------------|-----Cumulative-----|--------Count of days--------|          (0=Min, 1=Max Stress)         |
                         Time  Temp  Temp  Temp Solar Photop                Evapo    Pot TMIN TMIN TMAX TMAX TMAX RAIN|----Water----|---Nitrogen--|-Phosphorus-|
                         Span   Max   Min  Mean   Rad  [day]    CO2   Rain  Trans     ET   <    <    >    >    >    >   Photo         Photo         Photo
                         days    邂    邂    邂 MJ/m2     hr    ppm     mm     mm     mm  0邂  2邂 30邂 32邂 34邂  0mm  synth Growth  synth Growth  synth Growth
----------------------------------------------------------------------------------------------------------------------------------------------------------------
 Emergence-End Juvenile    12  31.2  19.8  25.5  15.6  24.00  386.9   51.0   28.2   53.2    0    0    6    4    2    8  0.000  0.000  0.002  0.004  0.000  0.000
 End Juvenil-Floral Init    7  31.0  18.4  24.7  18.3  24.00  386.9    2.8   16.3   34.8    0    0    6    0    0    2  0.000  0.000  0.000  0.001  0.000  0.000
 Floral Init-End Lf Grow   36  31.3  18.9  25.1  16.2  24.00  387.1  150.0  124.9  145.0    0    0   24   10    1   16  0.011  0.057  0.067  0.141  0.000  0.000
 End Lf Grth-Beg Grn Fil   11  29.0  18.3  23.6  14.3  24.00  387.3    5.8   36.7   36.9    0    0    3    0    0    2  0.000  0.000  0.000  0.000  0.000  0.000
 Grain Filling Phase       44  31.4  18.2  24.8  17.2  24.00  387.4   73.8  103.9  185.4    0    0   29   16    4    7  0.459  0.505  0.000  0.000  0.000  0.000


 Planting to Harvest      119  31.2  18.7  25.0  16.4  24.00  387.2  294.0  319.3  493.9    0    0   76   35    7   36  0.196  0.228  0.020  0.043  0.000  0.000
----------------------------------------------------------------------------------------------------------------------------------------------------------------


*Resource Productivity
 Growing season length: 119 days 

 Precipitation during growing season       294.0 mm[rain]
   Dry Matter Productivity                  4.32 kg[DM]/m3[rain]          =   43.2 kg[DM]/ha per mm[rain]
   Yield Productivity                       2.08 kg[grain yield]/m3[rain] =   20.8 kg[yield]/ha per mm[rain]

 Evapotranspiration during growing season  319.3 mm[ET]
   Dry Matter Productivity                  3.97 kg[DM]/m3[ET]            =   39.7 kg[DM]/ha per mm[ET]
   Yield Productivity                       1.91 kg[grain yield]/m3[ET]   =   19.1 kg[yield]/ha per mm[ET]

 Transpiration during growing season       215.8 mm[EP]
   Dry Matter Productivity                  5.88 kg[DM]/m3[EP]            =   58.8 kg[DM]/ha per mm[EP]
   Yield Productivity                       2.83 kg[grain yield]/m3[EP]   =   28.3 kg[yield]/ha per mm[EP]

 N applied during growing season            161. kg[N applied]/ha
   Dry Matter Productivity                  78.8 kg[DM]/kg[N applied]
   Yield Productivity                       37.9 kg[yield]/kg[N applied]

 N uptake during growing season              170 kg[N uptake]/ha
   Dry Matter Productivity                  74.6 kg[DM]/kg[N uptake]
   Yield Productivity                       35.9 kg[yield]/kg[N uptake]

--------------------------------------------------------------------------------------------------------------

                     Maize YIELD :     6106 kg/ha    [Dry weight] 

**************************************************************************************************************

*DSSAT Cropping System Model Ver. 4.6.1.000 -release      OCT 24, 2017; 10:52:22
                                                                                
*RUN   5        : P04/22                    MZCER046 ANBU2009    5              
 MODEL          : MZCER046 - Maize                                              
 EXPERIMENT     : ANBU2009 MZ  Analisis a침os de bajo rendimiento Buga          
 DATA PATH      : C:\DSSAT46\maize\                                             
 TREATMENT  5   : P04/22                    MZCER046                            
                                                                                
                                                                                
 CROP           : Maize            CULTIVAR : DK7088           ECOTYPE :IB0001  
 STARTING DATE  : MAR 23 2009                                                   
 PLANTING DATE  : APR 22 2009        PLANTS/m2 :  6.2     ROW SPACING :  80.cm  
 WEATHER        : CUNI   2009                                                   
 SOIL           : CCBUGA2017     TEXTURE : CL    -   Suelo Buga MADR Fase I     
 SOIL INITIAL C : DEPTH: 90cm EXTR. H2O: 83.9mm  NO3:  0.0kg/ha  NH4:  0.0kg/ha 
 WATER BALANCE  : RAINFED                                                       
 IRRIGATION     : NOT IRRIGATED                                                 
 NITROGEN BAL.  : SOIL-N & N-UPTAKE SIMULATION; NO N-FIXATION                   
 N-FERTILIZER   :      161 kg/ha IN     5 APPLICATIONS                          
 RESIDUE/MANURE : INITIAL :     0 kg/ha ;       0 kg/ha IN     0 APPLICATIONS   
 ENVIRONM. OPT. : DAYL=    0.00  SRAD=    0.00  TMAX=    0.00  TMIN=    0.00    
                  RAIN=    0.00  CO2 =    0.00  DEW =    0.00  WIND=    0.00    
 SIMULATION OPT : WATER   :Y  NITROGEN:Y  N-FIX:N  PHOSPH :N  PESTS  :N         
                  PHOTO   :C  ET      :R  INFIL:S  HYDROL :R  SOM    :G         
                  CO2 387ppm  NSWIT   :1  EVAP :S  SOIL   :2  STEMP  :D         
 MANAGEMENT OPT : PLANTING:R  IRRIG   :N  FERT :D  RESIDUE:R  HARVEST:M         
                  WEATHER :M  TILLAGE :N                                        
                                                                                
*SUMMARY OF SOIL AND GENETIC INPUT PARAMETERS                                   
                                                                                
   SOIL LOWER UPPER   SAT  EXTR  INIT   ROOT   BULK     pH    NO3    NH4    ORG 
  DEPTH LIMIT LIMIT    SW    SW    SW   DIST   DENS                          C  
   cm   cm3/cm3    cm3/cm3    cm3/cm3         g/cm3         ugN/g  ugN/g     %  
------------------------------------------------------------------------------- 
  0-  5 0.215 0.331 0.341 0.116 0.331   1.00   1.68   6.70   0.00   0.00   0.75 
  5- 15 0.215 0.331 0.341 0.116 0.331   1.00   1.68   6.70   0.00   0.00   0.75 
 15- 25 0.215 0.331 0.341 0.116 0.331   1.00   1.68   6.70   0.00   0.00   0.75 
 25- 35 0.181 0.291 0.364 0.110 0.291   0.50   1.61   7.20   0.00   0.00   0.53 
 35- 45 0.181 0.291 0.364 0.110 0.291   0.50   1.61   7.20   0.00   0.00   0.53 
 45- 67 0.096 0.169 0.404 0.073 0.169   0.27   1.51   7.00   0.00   0.00   0.05 
 67- 90 0.096 0.169 0.404 0.073 0.169   0.27   1.51   7.00   0.00   0.00   0.05 
                                                                                
TOT- 90  13.3  21.7  34.0   8.4  21.7  <--cm   -  kg/ha-->    0.0    0.0  51964 
SOIL ALBEDO    : 0.09      EVAPORATION LIMIT : 6.00         MIN. FACTOR  : 1.00 
RUNOFF CURVE # :76.00      DRAINAGE RATE     : 0.60         FERT. FACTOR : 1.00 
                                                                                
 Maize      CULTIVAR :CI0004-DK7088             ECOTYPE :IB0001                 
 P1     : 229.00  P2     : 0.3000  P5     : 971.00                              
 G2     : 957.00  G3     :  7.500  PHINT  : 45.000                              


*SIMULATED CROP AND SOIL STATUS AT MAIN DEVELOPMENT STAGES

 RUN NO.     5     P04/22                  

        CROP GROWTH     BIOMASS         LEAF   CROP N     STRESS      STRESS                                           
   DATE  AGE STAGE        kg/ha    LAI   NUM  kg/ha  %   H2O  Nitr Phos1 Phos2  RSTG                                   
 ------  --- ----------   -----  -----  ----  ---  ---  ----  ----  ----  ----  ----                                   
 23 MAR    0 Start Sim        0   0.00   0.0    0  0.0  0.00  0.00  0.00  0.00     7
 22 APR    0 Sowing           0   0.00   0.0    0  0.0  0.00  0.00  0.00  0.00     8
 23 APR    1 Germinate        0   0.00   0.0    0  0.0  0.00  0.00  0.00  0.00     9
 27 APR    5 Emergence       25   0.00   2.2    1  4.4  0.00  0.01  0.00  0.00     1
 10 MAY   18 End Juveni     102   0.22   7.8    3  3.2  0.00  0.00  0.00  0.00     2
 17 MAY   25 Floral Ini     406   0.70  10.5   14  3.4  0.00  0.00  0.00  0.00     3
 22 JUN   61 75% Silkin    6043   3.33  21.6  118  2.0  0.01  0.11  0.00  0.00     4
  3 JUL   72 Beg Gr Fil    8305   3.24  21.6  118  1.4  0.00  0.00  0.00  0.00     5
 16 AUG  116 End Gr Fil   12691   0.96  21.6  147  1.2  0.60  0.00  0.00  0.00     6
 19 AUG  119 Maturity     12691   0.96  21.6  147  1.2  0.30  0.00  0.00  0.00    10
 19 AUG  119 Harvest      12691   0.96  21.6  147  1.2  0.00  0.00  0.00  0.00    10


*MAIN GROWTH AND DEVELOPMENT VARIABLES

@     VARIABLE                                         SIMULATED     MEASURED
      --------                                         ---------     --------
      Anthesis day (dap)                                      61          -99
      Physiological maturity day (dap)                       119          -99
      Yield at harvest maturity (kg [dm]/ha)                5646          -99
      Number at maturity (no/m2)                            2710          -99
      Unit wt at maturity (g [dm]/unit)                   0.2083          -99
      Number at maturity (no/unit)                         437.1          -99
      Tops weight at maturity (kg [dm]/ha)                 12691          -99
      By-product produced (stalk) at maturity (kg[dm]/ha    7102          -99
      Leaf area index, maximum                              3.33          -99
      Harvest index at maturity                            0.445          -99
      Grain N at maturity (kg/ha)                            101          -99
      Tops N at maturity (kg/ha)                             147          -99
      Stem N at maturity (kg/ha)                              47          -99
      Grain N at maturity (%)                                1.8          -99
      Tops weight at anthesis (kg [dm]/ha)                  5882          -99
      Tops N at anthesis (kg/ha)                             118          -99
      Leaf number per stem at maturity                     21.64          -99
      Emergence day (dap)                                      5          -99


*ENVIRONMENTAL AND STRESS FACTORS

 |-----Development Phase------|--------------------------------------Environment--------------------------------------|-----------------Stress-----------------|
                              |---------------Average--------------|-----Cumulative-----|--------Count of days--------|          (0=Min, 1=Max Stress)         |
                         Time  Temp  Temp  Temp Solar Photop                Evapo    Pot TMIN TMIN TMAX TMAX TMAX RAIN|----Water----|---Nitrogen--|-Phosphorus-|
                         Span   Max   Min  Mean   Rad  [day]    CO2   Rain  Trans     ET   <    <    >    >    >    >   Photo         Photo         Photo
                         days    邂    邂    邂 MJ/m2     hr    ppm     mm     mm     mm  0邂  2邂 30邂 32邂 34邂  0mm  synth Growth  synth Growth  synth Growth
----------------------------------------------------------------------------------------------------------------------------------------------------------------
 Emergence-End Juvenile    13  30.6  19.4  25.0  16.3  24.00  386.9   42.1   35.5   59.7    0    0    8    2    1    7  0.000  0.000  0.002  0.006  0.000  0.000
 End Juvenil-Floral Init    7  31.5  18.1  24.8  18.0  24.00  387.0    5.3   13.8   34.0    0    0    5    1    0    4  0.000  0.000  0.000  0.001  0.000  0.000
 Floral Init-End Lf Grow   36  31.0  19.0  25.0  15.7  24.00  387.1  152.1  126.1  139.9    0    0   22    9    1   15  0.000  0.013  0.049  0.107  0.000  0.000
 End Lf Grth-Beg Grn Fil   11  28.3  18.0  23.2  14.3  24.00  387.3   55.5   36.1   36.2    0    0    1    0    0    3  0.000  0.000  0.000  0.000  0.000  0.000
 Grain Filling Phase       44  32.0  18.4  25.2  17.5  24.00  387.4   30.1   96.2  189.6    0    0   34   21    5    6  0.529  0.581  0.000  0.000  0.000  0.000


 Planting to Harvest      119  31.2  18.7  24.9  16.5  24.00  387.2  299.6  317.9  495.1    0    0   76   35    8   38  0.210  0.234  0.015  0.033  0.000  0.000
----------------------------------------------------------------------------------------------------------------------------------------------------------------


*Resource Productivity
 Growing season length: 119 days 

 Precipitation during growing season       299.6 mm[rain]
   Dry Matter Productivity                  4.24 kg[DM]/m3[rain]          =   42.4 kg[DM]/ha per mm[rain]
   Yield Productivity                       1.88 kg[grain yield]/m3[rain] =   18.8 kg[yield]/ha per mm[rain]

 Evapotranspiration during growing season  317.9 mm[ET]
   Dry Matter Productivity                  3.99 kg[DM]/m3[ET]            =   39.9 kg[DM]/ha per mm[ET]
   Yield Productivity                       1.78 kg[grain yield]/m3[ET]   =   17.8 kg[yield]/ha per mm[ET]

 Transpiration during growing season       212.7 mm[EP]
   Dry Matter Productivity                  5.97 kg[DM]/m3[EP]            =   59.7 kg[DM]/ha per mm[EP]
   Yield Productivity                       2.65 kg[grain yield]/m3[EP]   =   26.5 kg[yield]/ha per mm[EP]

 N applied during growing season            161. kg[N applied]/ha
   Dry Matter Productivity                  78.8 kg[DM]/kg[N applied]
   Yield Productivity                       35.1 kg[yield]/kg[N applied]

 N uptake during growing season              165 kg[N uptake]/ha
   Dry Matter Productivity                  76.9 kg[DM]/kg[N uptake]
   Yield Productivity                       34.2 kg[yield]/kg[N uptake]

--------------------------------------------------------------------------------------------------------------

                     Maize YIELD :     5646 kg/ha    [Dry weight] 

**************************************************************************************************************

*DSSAT Cropping System Model Ver. 4.6.1.000 -release      OCT 24, 2017; 10:52:22
                                                                                
*RUN   6        : P04/27                    MZCER046 ANBU2009    6              
 MODEL          : MZCER046 - Maize                                              
 EXPERIMENT     : ANBU2009 MZ  Analisis a침os de bajo rendimiento Buga          
 DATA PATH      : C:\DSSAT46\maize\                                             
 TREATMENT  6   : P04/27                    MZCER046                            
                                                                                
                                                                                
 CROP           : Maize            CULTIVAR : DK7088           ECOTYPE :IB0001  
 STARTING DATE  : MAR 28 2009                                                   
 PLANTING DATE  : APR 27 2009        PLANTS/m2 :  6.2     ROW SPACING :  80.cm  
 WEATHER        : CUNI   2009                                                   
 SOIL           : CCBUGA2017     TEXTURE : CL    -   Suelo Buga MADR Fase I     
 SOIL INITIAL C : DEPTH: 90cm EXTR. H2O: 83.9mm  NO3:  0.0kg/ha  NH4:  0.0kg/ha 
 WATER BALANCE  : RAINFED                                                       
 IRRIGATION     : NOT IRRIGATED                                                 
 NITROGEN BAL.  : SOIL-N & N-UPTAKE SIMULATION; NO N-FIXATION                   
 N-FERTILIZER   :      161 kg/ha IN     5 APPLICATIONS                          
 RESIDUE/MANURE : INITIAL :     0 kg/ha ;       0 kg/ha IN     0 APPLICATIONS   
 ENVIRONM. OPT. : DAYL=    0.00  SRAD=    0.00  TMAX=    0.00  TMIN=    0.00    
                  RAIN=    0.00  CO2 =    0.00  DEW =    0.00  WIND=    0.00    
 SIMULATION OPT : WATER   :Y  NITROGEN:Y  N-FIX:N  PHOSPH :N  PESTS  :N         
                  PHOTO   :C  ET      :R  INFIL:S  HYDROL :R  SOM    :G         
                  CO2 387ppm  NSWIT   :1  EVAP :S  SOIL   :2  STEMP  :D         
 MANAGEMENT OPT : PLANTING:R  IRRIG   :N  FERT :D  RESIDUE:R  HARVEST:M         
                  WEATHER :M  TILLAGE :N                                        
                                                                                
*SUMMARY OF SOIL AND GENETIC INPUT PARAMETERS                                   
                                                                                
   SOIL LOWER UPPER   SAT  EXTR  INIT   ROOT   BULK     pH    NO3    NH4    ORG 
  DEPTH LIMIT LIMIT    SW    SW    SW   DIST   DENS                          C  
   cm   cm3/cm3    cm3/cm3    cm3/cm3         g/cm3         ugN/g  ugN/g     %  
------------------------------------------------------------------------------- 
  0-  5 0.215 0.331 0.341 0.116 0.331   1.00   1.68   6.70   0.00   0.00   0.75 
  5- 15 0.215 0.331 0.341 0.116 0.331   1.00   1.68   6.70   0.00   0.00   0.75 
 15- 25 0.215 0.331 0.341 0.116 0.331   1.00   1.68   6.70   0.00   0.00   0.75 
 25- 35 0.181 0.291 0.364 0.110 0.291   0.50   1.61   7.20   0.00   0.00   0.53 
 35- 45 0.181 0.291 0.364 0.110 0.291   0.50   1.61   7.20   0.00   0.00   0.53 
 45- 67 0.096 0.169 0.404 0.073 0.169   0.27   1.51   7.00   0.00   0.00   0.05 
 67- 90 0.096 0.169 0.404 0.073 0.169   0.27   1.51   7.00   0.00   0.00   0.05 
                                                                                
TOT- 90  13.3  21.7  34.0   8.4  21.7  <--cm   -  kg/ha-->    0.0    0.0  51964 
SOIL ALBEDO    : 0.09      EVAPORATION LIMIT : 6.00         MIN. FACTOR  : 1.00 
RUNOFF CURVE # :76.00      DRAINAGE RATE     : 0.60         FERT. FACTOR : 1.00 
                                                                                
 Maize      CULTIVAR :CI0004-DK7088             ECOTYPE :IB0001                 
 P1     : 229.00  P2     : 0.3000  P5     : 971.00                              
 G2     : 957.00  G3     :  7.500  PHINT  : 45.000                              


*SIMULATED CROP AND SOIL STATUS AT MAIN DEVELOPMENT STAGES

 RUN NO.     6     P04/27                  

        CROP GROWTH     BIOMASS         LEAF   CROP N     STRESS      STRESS                                           
   DATE  AGE STAGE        kg/ha    LAI   NUM  kg/ha  %   H2O  Nitr Phos1 Phos2  RSTG                                   
 ------  --- ----------   -----  -----  ----  ---  ---  ----  ----  ----  ----  ----                                   
 28 MAR    0 Start Sim        0   0.00   0.0    0  0.0  0.00  0.00  0.00  0.00     7
 27 APR    0 Sowing           0   0.00   0.0    0  0.0  0.00  0.00  0.00  0.00     8
 28 APR    1 Germinate        0   0.00   0.0    0  0.0  0.00  0.00  0.00  0.00     9
  3 MAY    6 Emergence       25   0.00   2.1    1  4.4  0.00  0.01  0.00  0.00     1
 16 MAY   19 End Juveni     124   0.26   7.8    4  3.3  0.00  0.00  0.00  0.00     2
 23 MAY   26 Floral Ini     411   0.71  10.6   12  2.9  0.00  0.00  0.00  0.00     3
 30 JUN   64 75% Silkin    6823   3.64  22.1  134  2.0  0.00  0.04  0.00  0.00     4
 11 JUL   75 Beg Gr Fil    9237   3.45  22.1  134  1.5  0.00  0.00  0.00  0.00     5
 23 AUG  118 End Gr Fil   12467   0.82  22.1  138  1.1  0.72  0.00  0.00  0.00     6
 26 AUG  121 Maturity     12467   0.82  22.1  138  1.1  0.00  0.00  0.00  0.00    10
 26 AUG  121 Harvest      12467   0.82  22.1  138  1.1  0.00  0.00  0.00  0.00    10


*MAIN GROWTH AND DEVELOPMENT VARIABLES

@     VARIABLE                                         SIMULATED     MEASURED
      --------                                         ---------     --------
      Anthesis day (dap)                                      64          -99
      Physiological maturity day (dap)                       121          -99
      Yield at harvest maturity (kg [dm]/ha)                4668          -99
      Number at maturity (no/m2)                            2960          -99
      Unit wt at maturity (g [dm]/unit)                   0.1577          -99
      Number at maturity (no/unit)                         477.4          -99
      Tops weight at maturity (kg [dm]/ha)                 12467          -99
      By-product produced (stalk) at maturity (kg[dm]/ha    7863          -99
      Leaf area index, maximum                              3.74          -99
      Harvest index at maturity                            0.374          -99
      Grain N at maturity (kg/ha)                             85          -99
      Tops N at maturity (kg/ha)                             138          -99
      Stem N at maturity (kg/ha)                              53          -99
      Grain N at maturity (%)                                1.8          -99
      Tops weight at anthesis (kg [dm]/ha)                  6559          -99
      Tops N at anthesis (kg/ha)                             132          -99
      Leaf number per stem at maturity                     22.13          -99
      Emergence day (dap)                                      6          -99


*ENVIRONMENTAL AND STRESS FACTORS

 |-----Development Phase------|--------------------------------------Environment--------------------------------------|-----------------Stress-----------------|
                              |---------------Average--------------|-----Cumulative-----|--------Count of days--------|          (0=Min, 1=Max Stress)         |
                         Time  Temp  Temp  Temp Solar Photop                Evapo    Pot TMIN TMIN TMAX TMAX TMAX RAIN|----Water----|---Nitrogen--|-Phosphorus-|
                         Span   Max   Min  Mean   Rad  [day]    CO2   Rain  Trans     ET   <    <    >    >    >    >   Photo         Photo         Photo
                         days    邂    邂    邂 MJ/m2     hr    ppm     mm     mm     mm  0邂  2邂 30邂 32邂 34邂  0mm  synth Growth  synth Growth  synth Growth
----------------------------------------------------------------------------------------------------------------------------------------------------------------
 Emergence-End Juvenile    13  30.9  18.5  24.7  17.5  24.00  386.9   12.6   25.5   63.3    0    0    9    1    0    5  0.000  0.000  0.002  0.005  0.000  0.000
 End Juvenil-Floral Init    7  32.4  18.8  25.6  13.4  24.00  387.1    0.5   10.6   25.5    0    0    7    3    0    1  0.000  0.000  0.001  0.002  0.000  0.000
 Floral Init-End Lf Grow   38  30.1  18.8  24.5  15.7  24.00  387.2  172.6  133.5  146.0    0    0   17    6    1   17  0.000  0.000  0.015  0.038  0.000  0.000
 End Lf Grth-Beg Grn Fil   11  29.3  18.4  23.8  15.4  24.00  387.3   37.5   39.3   39.5    0    0    1    0    0    3  0.000  0.000  0.000  0.000  0.000  0.000
 Grain Filling Phase       43  32.4  18.5  25.5  17.9  24.00  387.5   49.2   78.0  192.7    0    0   39   21    5    9  0.654  0.719  0.000  0.000  0.000  0.000


 Planting to Harvest      121  31.1  18.7  24.9  16.5  24.00  387.3  316.1  313.7  506.8    0    0   78   34    7   41  0.232  0.255  0.005  0.013  0.000  0.000
----------------------------------------------------------------------------------------------------------------------------------------------------------------


*Resource Productivity
 Growing season length: 121 days 

 Precipitation during growing season       316.1 mm[rain]
   Dry Matter Productivity                  3.94 kg[DM]/m3[rain]          =   39.4 kg[DM]/ha per mm[rain]
   Yield Productivity                       1.48 kg[grain yield]/m3[rain] =   14.8 kg[yield]/ha per mm[rain]

 Evapotranspiration during growing season  313.7 mm[ET]
   Dry Matter Productivity                  3.97 kg[DM]/m3[ET]            =   39.7 kg[DM]/ha per mm[ET]
   Yield Productivity                       1.49 kg[grain yield]/m3[ET]   =   14.9 kg[yield]/ha per mm[ET]

 Transpiration during growing season       205.2 mm[EP]
   Dry Matter Productivity                  6.08 kg[DM]/m3[EP]            =   60.8 kg[DM]/ha per mm[EP]
   Yield Productivity                       2.27 kg[grain yield]/m3[EP]   =   22.7 kg[yield]/ha per mm[EP]

 N applied during growing season            161. kg[N applied]/ha
   Dry Matter Productivity                  77.4 kg[DM]/kg[N applied]
   Yield Productivity                       29.0 kg[yield]/kg[N applied]

 N uptake during growing season              154 kg[N uptake]/ha
   Dry Matter Productivity                  81.0 kg[DM]/kg[N uptake]
   Yield Productivity                       30.3 kg[yield]/kg[N uptake]

--------------------------------------------------------------------------------------------------------------

                     Maize YIELD :     4668 kg/ha    [Dry weight] 

**************************************************************************************************************

*DSSAT Cropping System Model Ver. 4.6.1.000 -release      OCT 24, 2017; 10:52:22
                                                                                
*RUN   7        : P05/02                    MZCER046 ANBU2009    7              
 MODEL          : MZCER046 - Maize                                              
 EXPERIMENT     : ANBU2009 MZ  Analisis a침os de bajo rendimiento Buga          
 DATA PATH      : C:\DSSAT46\maize\                                             
 TREATMENT  7   : P05/02                    MZCER046                            
                                                                                
                                                                                
 CROP           : Maize            CULTIVAR : DK7088           ECOTYPE :IB0001  
 STARTING DATE  : APR  2 2009                                                   
 PLANTING DATE  : MAY  2 2009        PLANTS/m2 :  6.2     ROW SPACING :  80.cm  
 WEATHER        : CUNI   2009                                                   
 SOIL           : CCBUGA2017     TEXTURE : CL    -   Suelo Buga MADR Fase I     
 SOIL INITIAL C : DEPTH: 90cm EXTR. H2O: 83.9mm  NO3:  0.0kg/ha  NH4:  0.0kg/ha 
 WATER BALANCE  : RAINFED                                                       
 IRRIGATION     : NOT IRRIGATED                                                 
 NITROGEN BAL.  : SOIL-N & N-UPTAKE SIMULATION; NO N-FIXATION                   
 N-FERTILIZER   :      161 kg/ha IN     5 APPLICATIONS                          
 RESIDUE/MANURE : INITIAL :     0 kg/ha ;       0 kg/ha IN     0 APPLICATIONS   
 ENVIRONM. OPT. : DAYL=    0.00  SRAD=    0.00  TMAX=    0.00  TMIN=    0.00    
                  RAIN=    0.00  CO2 =    0.00  DEW =    0.00  WIND=    0.00    
 SIMULATION OPT : WATER   :Y  NITROGEN:Y  N-FIX:N  PHOSPH :N  PESTS  :N         
                  PHOTO   :C  ET      :R  INFIL:S  HYDROL :R  SOM    :G         
                  CO2 387ppm  NSWIT   :1  EVAP :S  SOIL   :2  STEMP  :D         
 MANAGEMENT OPT : PLANTING:R  IRRIG   :N  FERT :D  RESIDUE:R  HARVEST:M         
                  WEATHER :M  TILLAGE :N                                        
                                                                                
*SUMMARY OF SOIL AND GENETIC INPUT PARAMETERS                                   
                                                                                
   SOIL LOWER UPPER   SAT  EXTR  INIT   ROOT   BULK     pH    NO3    NH4    ORG 
  DEPTH LIMIT LIMIT    SW    SW    SW   DIST   DENS                          C  
   cm   cm3/cm3    cm3/cm3    cm3/cm3         g/cm3         ugN/g  ugN/g     %  
------------------------------------------------------------------------------- 
  0-  5 0.215 0.331 0.341 0.116 0.331   1.00   1.68   6.70   0.00   0.00   0.75 
  5- 15 0.215 0.331 0.341 0.116 0.331   1.00   1.68   6.70   0.00   0.00   0.75 
 15- 25 0.215 0.331 0.341 0.116 0.331   1.00   1.68   6.70   0.00   0.00   0.75 
 25- 35 0.181 0.291 0.364 0.110 0.291   0.50   1.61   7.20   0.00   0.00   0.53 
 35- 45 0.181 0.291 0.364 0.110 0.291   0.50   1.61   7.20   0.00   0.00   0.53 
 45- 67 0.096 0.169 0.404 0.073 0.169   0.27   1.51   7.00   0.00   0.00   0.05 
 67- 90 0.096 0.169 0.404 0.073 0.169   0.27   1.51   7.00   0.00   0.00   0.05 
                                                                                
TOT- 90  13.3  21.7  34.0   8.4  21.7  <--cm   -  kg/ha-->    0.0    0.0  51964 
SOIL ALBEDO    : 0.09      EVAPORATION LIMIT : 6.00         MIN. FACTOR  : 1.00 
RUNOFF CURVE # :76.00      DRAINAGE RATE     : 0.60         FERT. FACTOR : 1.00 
                                                                                
 Maize      CULTIVAR :CI0004-DK7088             ECOTYPE :IB0001                 
 P1     : 229.00  P2     : 0.3000  P5     : 971.00                              
 G2     : 957.00  G3     :  7.500  PHINT  : 45.000                              


*SIMULATED CROP AND SOIL STATUS AT MAIN DEVELOPMENT STAGES

 RUN NO.     7     P05/02                  

        CROP GROWTH     BIOMASS         LEAF   CROP N     STRESS      STRESS                                           
   DATE  AGE STAGE        kg/ha    LAI   NUM  kg/ha  %   H2O  Nitr Phos1 Phos2  RSTG                                   
 ------  --- ----------   -----  -----  ----  ---  ---  ----  ----  ----  ----  ----                                   
  2 APR    0 Start Sim        0   0.00   0.0    0  0.0  0.00  0.00  0.00  0.00     7
  2 MAY    0 Sowing           0   0.00   0.0    0  0.0  0.00  0.00  0.00  0.00     8
  3 MAY    1 Germinate        0   0.00   0.0    0  0.0  0.00  0.00  0.00  0.00     9
  8 MAY    6 Emergence       25   0.00   2.1    1  4.4  0.00  0.01  0.00  0.00     1
 21 MAY   19 End Juveni     134   0.28   7.9    4  3.3  0.00  0.00  0.00  0.00     2
 28 MAY   26 Floral Ini     458   0.77  10.7   17  3.6  0.00  0.02  0.00  0.00     3
  6 JUL   65 75% Silkin    6988   3.82  22.3  136  1.9  0.01  0.01  0.00  0.00     4
 16 JUL   75 Beg Gr Fil    9092   3.43  22.3  136  1.5  0.26  0.00  0.00  0.00     5
 28 AUG  118 End Gr Fil   12199   0.87  22.3  136  1.1  0.69  0.00  0.00  0.00     6
 31 AUG  121 Maturity     12199   0.87  22.3  136  1.1  0.82  0.00  0.00  0.00    10
 31 AUG  121 Harvest      12199   0.87  22.3  136  1.1  0.00  0.00  0.00  0.00    10


*MAIN GROWTH AND DEVELOPMENT VARIABLES

@     VARIABLE                                         SIMULATED     MEASURED
      --------                                         ---------     --------
      Anthesis day (dap)                                      65          -99
      Physiological maturity day (dap)                       121          -99
      Yield at harvest maturity (kg [dm]/ha)                4550          -99
      Number at maturity (no/m2)                            2970          -99
      Unit wt at maturity (g [dm]/unit)                   0.1532          -99
      Number at maturity (no/unit)                         479.0          -99
      Tops weight at maturity (kg [dm]/ha)                 12199          -99
      By-product produced (stalk) at maturity (kg[dm]/ha    7714          -99
      Leaf area index, maximum                              3.95          -99
      Harvest index at maturity                            0.373          -99
      Grain N at maturity (kg/ha)                             83          -99
      Tops N at maturity (kg/ha)                             136          -99
      Stem N at maturity (kg/ha)                              53          -99
      Grain N at maturity (%)                                1.8          -99
      Tops weight at anthesis (kg [dm]/ha)                  6731          -99
      Tops N at anthesis (kg/ha)                             134          -99
      Leaf number per stem at maturity                     22.28          -99
      Emergence day (dap)                                      6          -99


*ENVIRONMENTAL AND STRESS FACTORS

 |-----Development Phase------|--------------------------------------Environment--------------------------------------|-----------------Stress-----------------|
                              |---------------Average--------------|-----Cumulative-----|--------Count of days--------|          (0=Min, 1=Max Stress)         |
                         Time  Temp  Temp  Temp Solar Photop                Evapo    Pot TMIN TMIN TMAX TMAX TMAX RAIN|----Water----|---Nitrogen--|-Phosphorus-|
                         Span   Max   Min  Mean   Rad  [day]    CO2   Rain  Trans     ET   <    <    >    >    >    >   Photo         Photo         Photo
                         days    邂    邂    邂 MJ/m2     hr    ppm     mm     mm     mm  0邂  2邂 30邂 32邂 34邂  0mm  synth Growth  synth Growth  synth Growth
----------------------------------------------------------------------------------------------------------------------------------------------------------------
 Emergence-End Juvenile    13  31.7  18.4  25.0  16.8  24.00  387.0    5.3   14.4   60.8    0    0   11    2    0    4  0.000  0.000  0.002  0.005  0.000  0.000
 End Juvenil-Floral Init    7  32.1  18.8  25.5  15.2  24.00  387.1    4.9   12.2   28.7    0    0    6    4    0    2  0.000  0.000  0.001  0.002  0.000  0.000
 Floral Init-End Lf Grow   39  29.7  18.7  24.2  15.5  24.00  387.2  205.2  139.7  146.5    0    0   13    4    1   18  0.000  0.010  0.004  0.010  0.000  0.000
 End Lf Grth-Beg Grn Fil   10  30.9  18.2  24.5  17.3  24.00  387.3    0.0   36.2   40.9    0    0    6    2    0    0  0.106  0.188  0.000  0.000  0.000  0.000
 Grain Filling Phase       43  32.5  18.6  25.5  17.7  24.00  387.5   58.6   73.9  191.9    0    0   38   22    6   10  0.637  0.690  0.000  0.000  0.000  0.000


 Planting to Harvest      121  31.3  18.6  24.9  16.6  23.97  387.3  295.4  299.7  509.7    0    0   81   35    7   39  0.253  0.284  0.002  0.004  0.000  0.000
----------------------------------------------------------------------------------------------------------------------------------------------------------------


*Resource Productivity
 Growing season length: 121 days 

 Precipitation during growing season       295.4 mm[rain]
   Dry Matter Productivity                  4.13 kg[DM]/m3[rain]          =   41.3 kg[DM]/ha per mm[rain]
   Yield Productivity                       1.54 kg[grain yield]/m3[rain] =   15.4 kg[yield]/ha per mm[rain]

 Evapotranspiration during growing season  299.7 mm[ET]
   Dry Matter Productivity                  4.07 kg[DM]/m3[ET]            =   40.7 kg[DM]/ha per mm[ET]
   Yield Productivity                       1.52 kg[grain yield]/m3[ET]   =   15.2 kg[yield]/ha per mm[ET]

 Transpiration during growing season       196.0 mm[EP]
   Dry Matter Productivity                  6.22 kg[DM]/m3[EP]            =   62.2 kg[DM]/ha per mm[EP]
   Yield Productivity                       2.32 kg[grain yield]/m3[EP]   =   23.2 kg[yield]/ha per mm[EP]

 N applied during growing season            161. kg[N applied]/ha
   Dry Matter Productivity                  75.8 kg[DM]/kg[N applied]
   Yield Productivity                       28.3 kg[yield]/kg[N applied]

 N uptake during growing season              152 kg[N uptake]/ha
   Dry Matter Productivity                  80.3 kg[DM]/kg[N uptake]
   Yield Productivity                       29.9 kg[yield]/kg[N uptake]

--------------------------------------------------------------------------------------------------------------

                     Maize YIELD :     4550 kg/ha    [Dry weight] 

**************************************************************************************************************

*DSSAT Cropping System Model Ver. 4.6.1.000 -release      OCT 24, 2017; 10:52:22
                                                                                
*RUN   8        : P05/07                    MZCER046 ANBU2009    8              
 MODEL          : MZCER046 - Maize                                              
 EXPERIMENT     : ANBU2009 MZ  Analisis a침os de bajo rendimiento Buga          
 DATA PATH      : C:\DSSAT46\maize\                                             
 TREATMENT  8   : P05/07                    MZCER046                            
                                                                                
                                                                                
 CROP           : Maize            CULTIVAR : DK7088           ECOTYPE :IB0001  
 STARTING DATE  : APR  7 2009                                                   
 PLANTING DATE  : MAY  7 2009        PLANTS/m2 :  6.2     ROW SPACING :  80.cm  
 WEATHER        : CUNI   2009                                                   
 SOIL           : CCBUGA2017     TEXTURE : CL    -   Suelo Buga MADR Fase I     
 SOIL INITIAL C : DEPTH: 90cm EXTR. H2O: 83.9mm  NO3:  0.0kg/ha  NH4:  0.0kg/ha 
 WATER BALANCE  : RAINFED                                                       
 IRRIGATION     : NOT IRRIGATED                                                 
 NITROGEN BAL.  : SOIL-N & N-UPTAKE SIMULATION; NO N-FIXATION                   
 N-FERTILIZER   :      161 kg/ha IN     5 APPLICATIONS                          
 RESIDUE/MANURE : INITIAL :     0 kg/ha ;       0 kg/ha IN     0 APPLICATIONS   
 ENVIRONM. OPT. : DAYL=    0.00  SRAD=    0.00  TMAX=    0.00  TMIN=    0.00    
                  RAIN=    0.00  CO2 =    0.00  DEW =    0.00  WIND=    0.00    
 SIMULATION OPT : WATER   :Y  NITROGEN:Y  N-FIX:N  PHOSPH :N  PESTS  :N         
                  PHOTO   :C  ET      :R  INFIL:S  HYDROL :R  SOM    :G         
                  CO2 387ppm  NSWIT   :1  EVAP :S  SOIL   :2  STEMP  :D         
 MANAGEMENT OPT : PLANTING:R  IRRIG   :N  FERT :D  RESIDUE:R  HARVEST:M         
                  WEATHER :M  TILLAGE :N                                        
                                                                                
*SUMMARY OF SOIL AND GENETIC INPUT PARAMETERS                                   
                                                                                
   SOIL LOWER UPPER   SAT  EXTR  INIT   ROOT   BULK     pH    NO3    NH4    ORG 
  DEPTH LIMIT LIMIT    SW    SW    SW   DIST   DENS                          C  
   cm   cm3/cm3    cm3/cm3    cm3/cm3         g/cm3         ugN/g  ugN/g     %  
------------------------------------------------------------------------------- 
  0-  5 0.215 0.331 0.341 0.116 0.331   1.00   1.68   6.70   0.00   0.00   0.75 
  5- 15 0.215 0.331 0.341 0.116 0.331   1.00   1.68   6.70   0.00   0.00   0.75 
 15- 25 0.215 0.331 0.341 0.116 0.331   1.00   1.68   6.70   0.00   0.00   0.75 
 25- 35 0.181 0.291 0.364 0.110 0.291   0.50   1.61   7.20   0.00   0.00   0.53 
 35- 45 0.181 0.291 0.364 0.110 0.291   0.50   1.61   7.20   0.00   0.00   0.53 
 45- 67 0.096 0.169 0.404 0.073 0.169   0.27   1.51   7.00   0.00   0.00   0.05 
 67- 90 0.096 0.169 0.404 0.073 0.169   0.27   1.51   7.00   0.00   0.00   0.05 
                                                                                
TOT- 90  13.3  21.7  34.0   8.4  21.7  <--cm   -  kg/ha-->    0.0    0.0  51964 
SOIL ALBEDO    : 0.09      EVAPORATION LIMIT : 6.00         MIN. FACTOR  : 1.00 
RUNOFF CURVE # :76.00      DRAINAGE RATE     : 0.60         FERT. FACTOR : 1.00 
                                                                                
 Maize      CULTIVAR :CI0004-DK7088             ECOTYPE :IB0001                 
 P1     : 229.00  P2     : 0.3000  P5     : 971.00                              
 G2     : 957.00  G3     :  7.500  PHINT  : 45.000                              


*SIMULATED CROP AND SOIL STATUS AT MAIN DEVELOPMENT STAGES

 RUN NO.     8     P05/07                  

        CROP GROWTH     BIOMASS         LEAF   CROP N     STRESS      STRESS                                           
   DATE  AGE STAGE        kg/ha    LAI   NUM  kg/ha  %   H2O  Nitr Phos1 Phos2  RSTG                                   
 ------  --- ----------   -----  -----  ----  ---  ---  ----  ----  ----  ----  ----                                   
  7 APR    0 Start Sim        0   0.00   0.0    0  0.0  0.00  0.00  0.00  0.00     7
  7 MAY    0 Sowing           0   0.00   0.0    0  0.0  0.00  0.00  0.00  0.00     8
  8 MAY    1 Germinate        0   0.00   0.0    0  0.0  0.00  0.00  0.00  0.00     9
 13 MAY    6 Emergence       25   0.00   2.1    1  4.4  0.00  0.01  0.00  0.00     1
 25 MAY   18 End Juveni     119   0.25   7.5    4  3.3  0.01  0.00  0.00  0.00     2
  1 JUN   25 Floral Ini     368   0.65  10.3   13  3.6  0.00  0.00  0.00  0.00     3
  9 JUL   63 75% Silkin    6475   3.39  21.5  126  1.9  0.03  0.00  0.00  0.00     4
 19 JUL   73 Beg Gr Fil    8326   2.88  21.5  126  1.5  0.43  0.00  0.00  0.00     5
 31 AUG  116 End Gr Fil   11189   0.74  21.5  126  1.1  0.66  0.00  0.00  0.00     6
  2 SEP  118 Maturity     11189   0.74  21.5  126  1.1  0.75  0.00  0.00  0.00    10
[...]
 NITROGEN BAL.  : SOIL-N & N-UPTAKE SIMULATION; NO N-FIXATION                   
 N-FERTILIZER   :      161 kg/ha IN     5 APPLICATIONS                          
 RESIDUE/MANURE : INITIAL :     0 kg/ha ;       0 kg/ha IN     0 APPLICATIONS   
 ENVIRONM. OPT. : DAYL=    0.00  SRAD=    0.00  TMAX=    0.00  TMIN=    0.00    
                  RAIN=    0.00  CO2 =    0.00  DEW =    0.00  WIND=    0.00    
 SIMULATION OPT : WATER   :Y  NITROGEN:Y  N-FIX:N  PHOSPH :N  PESTS  :N         
                  PHOTO   :C  ET      :R  INFIL:S  HYDROL :R  SOM    :G         
                  CO2 388ppm  NSWIT   :1  EVAP :S  SOIL   :2  STEMP  :D         
 MANAGEMENT OPT : PLANTING:R  IRRIG   :N  FERT :D  RESIDUE:R  HARVEST:M         
                  WEATHER :M  TILLAGE :N                                        
                                                                                
*SUMMARY OF SOIL AND GENETIC INPUT PARAMETERS                                   
                                                                                
   SOIL LOWER UPPER   SAT  EXTR  INIT   ROOT   BULK     pH    NO3    NH4    ORG 
  DEPTH LIMIT LIMIT    SW    SW    SW   DIST   DENS                          C  
   cm   cm3/cm3    cm3/cm3    cm3/cm3         g/cm3         ugN/g  ugN/g     %  
------------------------------------------------------------------------------- 
  0-  5 0.215 0.331 0.341 0.116 0.331   1.00   1.68   6.70   0.00   0.00   0.75 
  5- 15 0.215 0.331 0.341 0.116 0.331   1.00   1.68   6.70   0.00   0.00   0.75 
 15- 25 0.215 0.331 0.341 0.116 0.331   1.00   1.68   6.70   0.00   0.00   0.75 
 25- 35 0.181 0.291 0.364 0.110 0.291   0.50   1.61   7.20   0.00   0.00   0.53 
 35- 45 0.181 0.291 0.364 0.110 0.291   0.50   1.61   7.20   0.00   0.00   0.53 
 45- 67 0.096 0.169 0.404 0.073 0.169   0.27   1.51   7.00   0.00   0.00   0.05 
 67- 90 0.096 0.169 0.404 0.073 0.169   0.27   1.51   7.00   0.00   0.00   0.05 
                                                                                
TOT- 90  13.3  21.7  34.0   8.4  21.7  <--cm   -  kg/ha-->    0.0    0.0  51964 
SOIL ALBEDO    : 0.09      EVAPORATION LIMIT : 6.00         MIN. FACTOR  : 1.00 
RUNOFF CURVE # :76.00      DRAINAGE RATE     : 0.60         FERT. FACTOR : 1.00 
                                                                                
 Maize      CULTIVAR :CI0004-DK7088             ECOTYPE :IB0001                 
 P1     : 229.00  P2     : 0.3000  P5     : 971.00                              
 G2     : 957.00  G3     :  7.500  PHINT  : 45.000                              


*SIMULATED CROP AND SOIL STATUS AT MAIN DEVELOPMENT STAGES

 RUN NO.    35     P12/14                  

        CROP GROWTH     BIOMASS         LEAF   CROP N     STRESS      STRESS                                           
   DATE  AGE STAGE        kg/ha    LAI   NUM  kg/ha  %   H2O  Nitr Phos1 Phos2  RSTG                                   
 ------  --- ----------   -----  -----  ----  ---  ---  ----  ----  ----  ----  ----                                   
 14 NOV    0 Start Sim        0   0.00   0.0    0  0.0  0.00  0.00  0.00  0.00     7
 14 DEC    0 Sowing           0   0.00   0.0    0  0.0  0.00  0.00  0.00  0.00     8
 15 DEC    1 Germinate        0   0.00   0.0    0  0.0  0.00  0.00  0.00  0.00     9
 20 DEC    6 Emergence       25   0.00   2.1    1  4.4  0.00  0.01  0.00  0.00     1
  2 JAN   19 End Juveni      97   0.21   7.8    3  3.3  0.00  0.00  0.00  0.00     2
  6 JAN   23 Floral Ini     235   0.45   9.4    8  3.5  0.00  0.00  0.00  0.00     3
  6 FEB   54 75% Silkin    1993   0.76  19.4   14  0.7  0.38  0.63  0.00  0.00     4
 16 FEB   64 Beg Gr Fil    2099   0.52  19.4   43  2.0  0.82  0.25  0.00  0.00     5
 27 MAR  103 End Gr Fil    2910   0.17  19.4   43  1.5  0.63  0.00  0.00  0.00     6
 30 MAR  106 Maturity      2910   0.17  19.4   43  1.5  0.00  0.00  0.00  0.00    10
 30 MAR  106 Harvest       2910   0.17  19.4   43  1.5  0.00  0.00  0.00  0.00    10


*MAIN GROWTH AND DEVELOPMENT VARIABLES

@     VARIABLE                                         SIMULATED     MEASURED
      --------                                         ---------     --------
      Anthesis day (dap)                                      54          -99
      Physiological maturity day (dap)                       106          -99
      Yield at harvest maturity (kg [dm]/ha)                1039          -99
      Number at maturity (no/m2)                             543          -99
      Unit wt at maturity (g [dm]/unit)                   0.1913          -99
      Number at maturity (no/unit)                          99.0          -99
      Tops weight at maturity (kg [dm]/ha)                  2910          -99
      By-product produced (stalk) at maturity (kg[dm]/ha    1900          -99
      Leaf area index, maximum                              1.11          -99
      Harvest index at maturity                            0.357          -99
      Grain N at maturity (kg/ha)                             19          -99
      Tops N at maturity (kg/ha)                              43          -99
      Stem N at maturity (kg/ha)                              21          -99
      Grain N at maturity (%)                                1.8          -99
      Tops weight at anthesis (kg [dm]/ha)                  1982          -99
      Tops N at anthesis (kg/ha)                              14          -99
      Leaf number per stem at maturity                     19.44          -99
      Emergence day (dap)                                      6          -99


*ENVIRONMENTAL AND STRESS FACTORS

 |-----Development Phase------|--------------------------------------Environment--------------------------------------|-----------------Stress-----------------|
                              |---------------Average--------------|-----Cumulative-----|--------Count of days--------|          (0=Min, 1=Max Stress)         |
                         Time  Temp  Temp  Temp Solar Photop                Evapo    Pot TMIN TMIN TMAX TMAX TMAX RAIN|----Water----|---Nitrogen--|-Phosphorus-|
                         Span   Max   Min  Mean   Rad  [day]    CO2   Rain  Trans     ET   <    <    >    >    >    >   Photo         Photo         Photo
                         days    邂    邂    邂 MJ/m2     hr    ppm     mm     mm     mm  0邂  2邂 30邂 32邂 34邂  0mm  synth Growth  synth Growth  synth Growth
----------------------------------------------------------------------------------------------------------------------------------------------------------------
 Emergence-End Juvenile    13  30.8  19.0  24.9  16.2   0.00  388.5   30.6   36.6   58.8    0    0    7    3    0    4  0.000  0.000  0.002  0.005  0.000  0.000
 End Juvenil-Floral Init    4  31.8  18.0  24.9  18.1   0.00  388.5    0.0    6.4   19.7    0    0    3    2    0    0  0.000  0.000  0.001  0.003  0.000  0.000
 Floral Init-End Lf Grow   31  33.5  18.8  26.2  18.4   0.00  388.7    2.8   61.3  151.5    0    0   29   21   12    4  0.262  0.357  0.390  0.601  0.000  0.000
 End Lf Grth-Beg Grn Fil   10  32.4  19.9  26.2  17.7   0.00  388.8   13.2   12.6   47.6    0    0    8    7    2    2  0.702  0.802  0.243  0.336  0.000  0.000
 Grain Filling Phase       39  33.7  20.3  27.0  16.5   5.84  389.1   64.9   48.5  182.7    0    0   37   33   15   13  0.568  0.650  0.000  0.000  0.000  0.000


 Planting to Harvest      106  32.9  19.6  26.2  17.0   2.54  388.8  130.3  182.7  497.8    0    0   90   71   29   26  0.352  0.419  0.137  0.208  0.000  0.000
----------------------------------------------------------------------------------------------------------------------------------------------------------------


*Resource Productivity
 Growing season length: 106 days 

 Precipitation during growing season       130.3 mm[rain]
   Dry Matter Productivity                  2.23 kg[DM]/m3[rain]          =   22.3 kg[DM]/ha per mm[rain]
   Yield Productivity                       0.80 kg[grain yield]/m3[rain] =    8.0 kg[yield]/ha per mm[rain]

 Evapotranspiration during growing season  182.7 mm[ET]
   Dry Matter Productivity                  1.59 kg[DM]/m3[ET]            =   15.9 kg[DM]/ha per mm[ET]
   Yield Productivity                       0.57 kg[grain yield]/m3[ET]   =    5.7 kg[yield]/ha per mm[ET]

 Transpiration during growing season        73.2 mm[EP]
   Dry Matter Productivity                  3.98 kg[DM]/m3[EP]            =   39.8 kg[DM]/ha per mm[EP]
   Yield Productivity                       1.42 kg[grain yield]/m3[EP]   =   14.2 kg[yield]/ha per mm[EP]

 N applied during growing season            161. kg[N applied]/ha
   Dry Matter Productivity                  18.1 kg[DM]/kg[N applied]
   Yield Productivity                        6.5 kg[yield]/kg[N applied]

 N uptake during growing season               48 kg[N uptake]/ha
   Dry Matter Productivity                  60.6 kg[DM]/kg[N uptake]
   Yield Productivity                       21.6 kg[yield]/kg[N uptake]

--------------------------------------------------------------------------------------------------------------

                     Maize YIELD :     1039 kg/ha    [Dry weight] 

**************************************************************************************************************

*DSSAT Cropping System Model Ver. 4.6.1.000 -release      OCT 24, 2017; 10:52:38
                                                                                
*RUN  36        : P12/19                    MZCER046 ANBU2009   36              
 MODEL          : MZCER046 - Maize                                              
 EXPERIMENT     : ANBU2009 MZ  Analisis a침os de bajo rendimiento Buga          
 DATA PATH      : C:\DSSAT46\maize\                                             
 TREATMENT 36   : P12/19                    MZCER046                            
                                                                                
                                                                                
 CROP           : Maize            CULTIVAR : DK7088           ECOTYPE :IB0001  
 STARTING DATE  : NOV 19 2009                                                   
 PLANTING DATE  : DEC 19 2009        PLANTS/m2 :  6.2     ROW SPACING :  80.cm  
 WEATHER        : CUNI   2009                                                   
 SOIL           : CCBUGA2017     TEXTURE : CL    -   Suelo Buga MADR Fase I     
 SOIL INITIAL C : DEPTH: 90cm EXTR. H2O: 83.9mm  NO3:  0.0kg/ha  NH4:  0.0kg/ha 
 WATER BALANCE  : RAINFED                                                       
 IRRIGATION     : NOT IRRIGATED                                                 
 NITROGEN BAL.  : SOIL-N & N-UPTAKE SIMULATION; NO N-FIXATION                   
 N-FERTILIZER   :      161 kg/ha IN     5 APPLICATIONS                          
 RESIDUE/MANURE : INITIAL :     0 kg/ha ;       0 kg/ha IN     0 APPLICATIONS   
 ENVIRONM. OPT. : DAYL=    0.00  SRAD=    0.00  TMAX=    0.00  TMIN=    0.00    
                  RAIN=    0.00  CO2 =    0.00  DEW =    0.00  WIND=    0.00    
 SIMULATION OPT : WATER   :Y  NITROGEN:Y  N-FIX:N  PHOSPH :N  PESTS  :N         
                  PHOTO   :C  ET      :R  INFIL:S  HYDROL :R  SOM    :G         
                  CO2 388ppm  NSWIT   :1  EVAP :S  SOIL   :2  STEMP  :D         
 MANAGEMENT OPT : PLANTING:R  IRRIG   :N  FERT :D  RESIDUE:R  HARVEST:M         
                  WEATHER :M  TILLAGE :N                                        
                                                                                
*SUMMARY OF SOIL AND GENETIC INPUT PARAMETERS                                   
                                                                                
   SOIL LOWER UPPER   SAT  EXTR  INIT   ROOT   BULK     pH    NO3    NH4    ORG 
  DEPTH LIMIT LIMIT    SW    SW    SW   DIST   DENS                          C  
   cm   cm3/cm3    cm3/cm3    cm3/cm3         g/cm3         ugN/g  ugN/g     %  
------------------------------------------------------------------------------- 
  0-  5 0.215 0.331 0.341 0.116 0.331   1.00   1.68   6.70   0.00   0.00   0.75 
  5- 15 0.215 0.331 0.341 0.116 0.331   1.00   1.68   6.70   0.00   0.00   0.75 
 15- 25 0.215 0.331 0.341 0.116 0.331   1.00   1.68   6.70   0.00   0.00   0.75 
 25- 35 0.181 0.291 0.364 0.110 0.291   0.50   1.61   7.20   0.00   0.00   0.53 
 35- 45 0.181 0.291 0.364 0.110 0.291   0.50   1.61   7.20   0.00   0.00   0.53 
 45- 67 0.096 0.169 0.404 0.073 0.169   0.27   1.51   7.00   0.00   0.00   0.05 
 67- 90 0.096 0.169 0.404 0.073 0.169   0.27   1.51   7.00   0.00   0.00   0.05 
                                                                                
TOT- 90  13.3  21.7  34.0   8.4  21.7  <--cm   -  kg/ha-->    0.0    0.0  51964 
SOIL ALBEDO    : 0.09      EVAPORATION LIMIT : 6.00         MIN. FACTOR  : 1.00 
RUNOFF CURVE # :76.00      DRAINAGE RATE     : 0.60         FERT. FACTOR : 1.00 
                                                                                
 Maize      CULTIVAR :CI0004-DK7088             ECOTYPE :IB0001                 
 P1     : 229.00  P2     : 0.3000  P5     : 971.00                              
 G2     : 957.00  G3     :  7.500  PHINT  : 45.000                              


*SIMULATED CROP AND SOIL STATUS AT MAIN DEVELOPMENT STAGES

 RUN NO.    36     P12/19                  

        CROP GROWTH     BIOMASS         LEAF   CROP N     STRESS      STRESS                                           
   DATE  AGE STAGE        kg/ha    LAI   NUM  kg/ha  %   H2O  Nitr Phos1 Phos2  RSTG                                   
 ------  --- ----------   -----  -----  ----  ---  ---  ----  ----  ----  ----  ----                                   
 19 NOV    0 Start Sim        0   0.00   0.0    0  0.0  0.00  0.00  0.00  0.00     7
 19 DEC    0 Sowing           0   0.00   0.0    0  0.0  0.00  0.00  0.00  0.00     8
 20 DEC    1 Germinate        0   0.00   0.0    0  0.0  0.00  0.00  0.00  0.00     9
 25 DEC    6 Emergence       25   0.00   2.1    1  4.4  0.00  0.01  0.00  0.00     1
  7 JAN   19 End Juveni     116   0.25   7.9    4  3.2  0.00  0.00  0.00  0.00     2
 11 JAN   23 Floral Ini     277   0.51   9.5    9  3.2  0.00  0.00  0.00  0.00     3
 12 FEB   55 75% Silkin    1977   0.73  20.1   44  2.2  0.44  0.60  0.00  0.00     4
 21 FEB   64 Beg Gr Fil    1983   0.51  20.1   44  2.2  0.85  0.00  0.00  0.00     5
  1 APR  103 End Gr Fil    2905   0.20  20.1   44  1.5  0.54  0.00  0.00  0.00     6
  4 APR  106 Maturity      2905   0.20  20.1   44  1.5  0.00  0.00  0.00  0.00    10
  4 APR  106 Harvest       2905   0.20  20.1   44  1.5  0.00  0.00  0.00  0.00    10


*MAIN GROWTH AND DEVELOPMENT VARIABLES

@     VARIABLE                                         SIMULATED     MEASURED
      --------                                         ---------     --------
      Anthesis day (dap)                                      55          -99
      Physiological maturity day (dap)                       106          -99
      Yield at harvest maturity (kg [dm]/ha)                 906          -99
      Number at maturity (no/m2)                             443          -99
      Unit wt at maturity (g [dm]/unit)                   0.2047          -99
      Number at maturity (no/unit)                          84.9          -99
      Tops weight at maturity (kg [dm]/ha)                  2905          -99
      By-product produced (stalk) at maturity (kg[dm]/ha    2028          -99
      Leaf area index, maximum                              1.07          -99
      Harvest index at maturity                            0.312          -99
      Grain N at maturity (kg/ha)                             16          -99
      Tops N at maturity (kg/ha)                              44          -99
      Stem N at maturity (kg/ha)                              25          -99
      Grain N at maturity (%)                                1.8          -99
      Tops weight at anthesis (kg [dm]/ha)                  1963          -99
      Tops N at anthesis (kg/ha)                              44          -99
      Leaf number per stem at maturity                     20.12          -99
      Emergence day (dap)                                      6          -99


*ENVIRONMENTAL AND STRESS FACTORS

 |-----Development Phase------|--------------------------------------Environment--------------------------------------|-----------------Stress-----------------|
                              |---------------Average--------------|-----Cumulative-----|--------Count of days--------|          (0=Min, 1=Max Stress)         |
                         Time  Temp  Temp  Temp Solar Photop                Evapo    Pot TMIN TMIN TMAX TMAX TMAX RAIN|----Water----|---Nitrogen--|-Phosphorus-|
                         Span   Max   Min  Mean   Rad  [day]    CO2   Rain  Trans     ET   <    <    >    >    >    >   Photo         Photo         Photo
                         days    邂    邂    邂 MJ/m2     hr    ppm     mm     mm     mm  0邂  2邂 30邂 32邂 34邂  0mm  synth Growth  synth Growth  synth Growth
----------------------------------------------------------------------------------------------------------------------------------------------------------------
 Emergence-End Juvenile    13  31.3  18.7  25.0  17.1   0.00  388.5   21.6   26.9   62.1    0    0    9    4    0    3  0.000  0.000  0.002  0.004  0.000  0.000
 End Juvenil-Floral Init    4  32.6  19.1  25.9  18.0   0.00  388.5    1.4    5.8   19.7    0    0    4    2    0    2  0.000  0.000  0.002  0.004  0.000  0.000
 Floral Init-End Lf Grow   32  33.3  19.0  26.1  18.2   0.00  388.7   14.6   60.4  154.5    0    0   28   22   13    4  0.303  0.409  0.385  0.595  0.000  0.000
 End Lf Grth-Beg Grn Fil    9  33.9  20.1  27.0  16.5   0.00  388.9    4.2   11.3   40.9    0    0    9    9    2    1  0.777  0.852  0.000  0.000  0.000  0.000
 Grain Filling Phase       39  33.6  20.4  27.0  16.5   7.68  389.1   82.2   55.7  181.7    0    0   37   32   14   13  0.485  0.559  0.000  0.000  0.000  0.000


 Planting to Harvest      106  33.0  19.6  26.3  17.2   3.27  388.9  143.0  186.7  501.8    0    0   92   71   29   25  0.336  0.402  0.117  0.180  0.000  0.000
----------------------------------------------------------------------------------------------------------------------------------------------------------------


*Resource Productivity
 Growing season length: 106 days 

 Precipitation during growing season       143.0 mm[rain]
   Dry Matter Productivity                  2.03 kg[DM]/m3[rain]          =   20.3 kg[DM]/ha per mm[rain]
   Yield Productivity                       0.63 kg[grain yield]/m3[rain] =    6.3 kg[yield]/ha per mm[rain]

 Evapotranspiration during growing season  186.7 mm[ET]
   Dry Matter Productivity                  1.56 kg[DM]/m3[ET]            =   15.6 kg[DM]/ha per mm[ET]
   Yield Productivity                       0.49 kg[grain yield]/m3[ET]   =    4.9 kg[yield]/ha per mm[ET]

 Transpiration during growing season        73.5 mm[EP]
   Dry Matter Productivity                  3.95 kg[DM]/m3[EP]            =   39.5 kg[DM]/ha per mm[EP]
   Yield Productivity                       1.23 kg[grain yield]/m3[EP]   =   12.3 kg[yield]/ha per mm[EP]

 N applied during growing season            161. kg[N applied]/ha
   Dry Matter Productivity                  18.0 kg[DM]/kg[N applied]
   Yield Productivity                        5.6 kg[yield]/kg[N applied]

 N uptake during growing season               49 kg[N uptake]/ha
   Dry Matter Productivity                  59.3 kg[DM]/kg[N uptake]
   Yield Productivity                       18.5 kg[yield]/kg[N uptake]

--------------------------------------------------------------------------------------------------------------

                     Maize YIELD :      906 kg/ha    [Dry weight] 

**************************************************************************************************************
