*SIMULATION OVERVIEW FILE

*DSSAT Cropping System Model Ver. 4.6.1.000 -release      OCT 24, 2017; 11:01:33
                                                                                
*RUN   1        : P07/14                    MZCER046 ANES2009    1              
 MODEL          : MZCER046 - Maize                                              
 EXPERIMENT     : ANES2009 MZ  MZ Analisis a침os de bajo rendimiento Espinal    
 DATA PATH      : C:\DSSAT46\maize\                                             
 TREATMENT  1   : P07/14                    MZCER046                            
                                                                                
                                                                                
 CROP           : Maize            CULTIVAR : P30F35           ECOTYPE :IB0001  
 STARTING DATE  : JUN 14 2009                                                   
 PLANTING DATE  : JUL 14 2009        PLANTS/m2 :  6.2     ROW SPACING :  80.cm  
 WEATHER        : CNAT   2009                                                   
 SOIL           : CCESPI2017     TEXTURE : SL    -   Suelo Espinal Calibraci    
 SOIL INITIAL C : DEPTH:100cm EXTR. H2O: 83.6mm  NO3:  0.0kg/ha  NH4:  0.0kg/ha 
 WATER BALANCE  : RAINFED                                                       
 IRRIGATION     : NOT IRRIGATED                                                 
 NITROGEN BAL.  : SOIL-N & N-UPTAKE SIMULATION; NO N-FIXATION                   
 N-FERTILIZER   :      162 kg/ha IN     6 APPLICATIONS                          
 RESIDUE/MANURE : INITIAL :     0 kg/ha ;       0 kg/ha IN     0 APPLICATIONS   
 ENVIRONM. OPT. : DAYL=    0.00  SRAD=    0.00  TMAX=    0.00  TMIN=    0.00    
                  RAIN=    0.00  CO2 =    0.00  DEW =    0.00  WIND=    0.00    
 SIMULATION OPT : WATER   :Y  NITROGEN:Y  N-FIX:N  PHOSPH :N  PESTS  :N         
                  PHOTO   :C  ET      :R  INFIL:S  HYDROL :R  SOM    :G         
                  CO2 387ppm  NSWIT   :1  EVAP :S  SOIL   :2  STEMP  :D         
 MANAGEMENT OPT : PLANTING:R  IRRIG   :N  FERT :D  RESIDUE:R  HARVEST:M         
                  WEATHER :M  TILLAGE :N                                        
                                                                                
*SUMMARY OF SOIL AND GENETIC INPUT PARAMETERS                                   
                                                                                
   SOIL LOWER UPPER   SAT  EXTR  INIT   ROOT   BULK     pH    NO3    NH4    ORG 
  DEPTH LIMIT LIMIT    SW    SW    SW   DIST   DENS                          C  
   cm   cm3/cm3    cm3/cm3    cm3/cm3         g/cm3         ugN/g  ugN/g     %  
------------------------------------------------------------------------------- 
  0-  5 0.160 0.252 0.376 0.092 0.252   1.00   1.69   6.60   0.00   0.00   0.45 
  5- 15 0.160 0.252 0.376 0.092 0.252   1.00   1.69   6.60   0.00   0.00   0.45 
 15- 30 0.160 0.252 0.376 0.092 0.252   1.00   1.69   6.60   0.00   0.00   0.45 
 30- 53 0.120 0.200 0.440 0.080 0.200   0.27   1.40   7.10   0.00   0.00   0.17 
 53- 77 0.120 0.200 0.440 0.080 0.200   0.27   1.40   7.10   0.00   0.00   0.17 
 77-100 0.120 0.200 0.440 0.080 0.200   0.27   1.40   7.10   0.00   0.00   0.17 
                                                                                
TOT-100  13.2  21.6  42.1   8.4  21.6  <--cm   -  kg/ha-->    0.0    0.0  39475 
SOIL ALBEDO    : 0.09      EVAPORATION LIMIT : 6.00         MIN. FACTOR  : 1.00 
RUNOFF CURVE # :76.00      DRAINAGE RATE     : 0.60         FERT. FACTOR : 1.00 
                                                                                
 Maize      CULTIVAR :CI0001-P30F35             ECOTYPE :IB0001                 
 P1     : 200.00  P2     : 0.3000  P5     : 925.00                              
 G2     : 954.00  G3     :  7.000  PHINT  : 50.000                              


*SIMULATED CROP AND SOIL STATUS AT MAIN DEVELOPMENT STAGES

 RUN NO.     1     P07/14                  

        CROP GROWTH     BIOMASS         LEAF   CROP N     STRESS      STRESS                                           
   DATE  AGE STAGE        kg/ha    LAI   NUM  kg/ha  %   H2O  Nitr Phos1 Phos2  RSTG                                   
 ------  --- ----------   -----  -----  ----  ---  ---  ----  ----  ----  ----  ----                                   
 14 JUN    0 Start Sim        0   0.00   0.0    0  0.0  0.00  0.00  0.00  0.00     7
 14 JUL    0 Sowing           0   0.00   0.0    0  0.0  0.00  0.00  0.00  0.00     8
 15 JUL    1 Germinate        0   0.00   0.0    0  0.0  0.00  0.00  0.00  0.00     9
 19 JUL    5 Emergence       25   0.00   2.1    1  4.4  0.00  0.01  0.00  0.00     1
 29 JUL   15 End Juveni      94   0.20   6.9    3  3.2  0.00  0.00  0.00  0.00     2
  5 AUG   22 Floral Ini     295   0.52  10.0    6  1.9  0.19  0.17  0.00  0.00     3
  7 SEP   55 75% Silkin    2727   1.07  20.8   57  2.1  0.48  0.22  0.00  0.00     4
 15 SEP   63 Beg Gr Fil    2799   0.79  20.8   57  2.0  0.79  0.00  0.00  0.00     5
 20 OCT   98 End Gr Fil    3851   0.60  20.8   57  1.5  0.26  0.00  0.00  0.00     6
 22 OCT  100 Maturity      3851   0.60  20.8   57  1.5  0.82  0.00  0.00  0.00    10
 22 OCT  100 Harvest       3851   0.60  20.8   57  1.5  0.00  0.00  0.00  0.00    10


*MAIN GROWTH AND DEVELOPMENT VARIABLES

@     VARIABLE                                         SIMULATED     MEASURED
      --------                                         ---------     --------
      Anthesis day (dap)                                      55          -99
      Physiological maturity day (dap)                       100          -99
      Yield at harvest maturity (kg [dm]/ha)                 972          -99
      Number at maturity (no/m2)                             556          -99
      Unit wt at maturity (g [dm]/unit)                   0.1748          -99
      Number at maturity (no/unit)                         100.8          -99
      Tops weight at maturity (kg [dm]/ha)                  3851          -99
      By-product produced (stalk) at maturity (kg[dm]/ha    2910          -99
      Leaf area index, maximum                              1.25          -99
      Harvest index at maturity                            0.253          -99
      Grain N at maturity (kg/ha)                             17          -99
      Tops N at maturity (kg/ha)                              57          -99
      Stem N at maturity (kg/ha)                              38          -99
      Grain N at maturity (%)                                1.8          -99
      Tops weight at anthesis (kg [dm]/ha)                  2683          -99
      Tops N at anthesis (kg/ha)                              57          -99
      Leaf number per stem at maturity                     20.79          -99
      Emergence day (dap)                                      5          -99


*ENVIRONMENTAL AND STRESS FACTORS

 |-----Development Phase------|--------------------------------------Environment--------------------------------------|-----------------Stress-----------------|
                              |---------------Average--------------|-----Cumulative-----|--------Count of days--------|          (0=Min, 1=Max Stress)         |
                         Time  Temp  Temp  Temp Solar Photop                Evapo    Pot TMIN TMIN TMAX TMAX TMAX RAIN|----Water----|---Nitrogen--|-Phosphorus-|
                         Span   Max   Min  Mean   Rad  [day]    CO2   Rain  Trans     ET   <    <    >    >    >    >   Photo         Photo         Photo
                         days    邂    邂    邂 MJ/m2     hr    ppm     mm     mm     mm  0邂  2邂 30邂 32邂 34邂  0mm  synth Growth  synth Growth  synth Growth
----------------------------------------------------------------------------------------------------------------------------------------------------------------
 Emergence-End Juvenile    10  34.3  21.4  27.9  19.4  24.00  387.5    0.0    3.9   56.2    0    0   10    9    6    0  0.000  0.000  0.002  0.005  0.000  0.000
 End Juvenil-Floral Init    7  35.5  22.3  28.9  21.3  24.00  387.5    0.0    9.0   43.9    0    0    7    7    7    0  0.026  0.186  0.041  0.103  0.000  0.000
 Floral Init-End Lf Grow   33  34.4  22.0  28.2  19.5  22.83  387.6   48.0   69.4  179.1    0    0   32   28   21    7  0.334  0.457  0.141  0.237  0.000  0.000
 End Lf Grth-Beg Grn Fil    8  36.3  22.6  29.5  21.3  15.63  387.7   46.0    9.3   50.9    0    0    8    8    7    2  0.817  0.879  0.000  0.000  0.000  0.000
 Grain Filling Phase       35  35.1  22.2  28.7  20.6   7.30  387.9  100.5  105.5  209.4    0    0   35   31   24    6  0.155  0.234  0.000  0.000  0.000  0.000


 Planting to Harvest      100  34.8  22.0  28.4  20.2  16.62  387.7  194.5  200.7  580.8    0    0   99   90   69   15  0.246  0.332  0.050  0.086  0.000  0.000
----------------------------------------------------------------------------------------------------------------------------------------------------------------


*Resource Productivity
 Growing season length: 100 days 

 Precipitation during growing season       194.5 mm[rain]
   Dry Matter Productivity                  1.98 kg[DM]/m3[rain]          =   19.8 kg[DM]/ha per mm[rain]
   Yield Productivity                       0.50 kg[grain yield]/m3[rain] =    5.0 kg[yield]/ha per mm[rain]

 Evapotranspiration during growing season  200.7 mm[ET]
   Dry Matter Productivity                  1.92 kg[DM]/m3[ET]            =   19.2 kg[DM]/ha per mm[ET]
   Yield Productivity                       0.48 kg[grain yield]/m3[ET]   =    4.8 kg[yield]/ha per mm[ET]

 Transpiration during growing season       135.6 mm[EP]
   Dry Matter Productivity                  2.84 kg[DM]/m3[EP]            =   28.4 kg[DM]/ha per mm[EP]
   Yield Productivity                       0.72 kg[grain yield]/m3[EP]   =    7.2 kg[yield]/ha per mm[EP]

 N applied during growing season            162. kg[N applied]/ha
   Dry Matter Productivity                  23.8 kg[DM]/kg[N applied]
   Yield Productivity                        6.0 kg[yield]/kg[N applied]

 N uptake during growing season               62 kg[N uptake]/ha
   Dry Matter Productivity                  62.1 kg[DM]/kg[N uptake]
   Yield Productivity                       15.7 kg[yield]/kg[N uptake]

--------------------------------------------------------------------------------------------------------------

                     Maize YIELD :      972 kg/ha    [Dry weight] 

**************************************************************************************************************

*DSSAT Cropping System Model Ver. 4.6.1.000 -release      OCT 24, 2017; 11:01:33
                                                                                
*RUN   2        : P07/19                    MZCER046 ANES2009    2              
 MODEL          : MZCER046 - Maize                                              
 EXPERIMENT     : ANES2009 MZ  MZ Analisis a침os de bajo rendimiento Espinal    
 DATA PATH      : C:\DSSAT46\maize\                                             
 TREATMENT  2   : P07/19                    MZCER046                            
                                                                                
                                                                                
 CROP           : Maize            CULTIVAR : P30F35           ECOTYPE :IB0001  
 STARTING DATE  : JUN 19 2009                                                   
 PLANTING DATE  : JUL 19 2009        PLANTS/m2 :  6.2     ROW SPACING :  80.cm  
 WEATHER        : CNAT   2009                                                   
 SOIL           : CCESPI2017     TEXTURE : SL    -   Suelo Espinal Calibraci    
 SOIL INITIAL C : DEPTH:100cm EXTR. H2O: 83.6mm  NO3:  0.0kg/ha  NH4:  0.0kg/ha 
 WATER BALANCE  : RAINFED                                                       
 IRRIGATION     : NOT IRRIGATED                                                 
 NITROGEN BAL.  : SOIL-N & N-UPTAKE SIMULATION; NO N-FIXATION                   
 N-FERTILIZER   :      162 kg/ha IN     6 APPLICATIONS                          
 RESIDUE/MANURE : INITIAL :     0 kg/ha ;       0 kg/ha IN     0 APPLICATIONS   
 ENVIRONM. OPT. : DAYL=    0.00  SRAD=    0.00  TMAX=    0.00  TMIN=    0.00    
                  RAIN=    0.00  CO2 =    0.00  DEW =    0.00  WIND=    0.00    
 SIMULATION OPT : WATER   :Y  NITROGEN:Y  N-FIX:N  PHOSPH :N  PESTS  :N         
                  PHOTO   :C  ET      :R  INFIL:S  HYDROL :R  SOM    :G         
                  CO2 387ppm  NSWIT   :1  EVAP :S  SOIL   :2  STEMP  :D         
 MANAGEMENT OPT : PLANTING:R  IRRIG   :N  FERT :D  RESIDUE:R  HARVEST:M         
                  WEATHER :M  TILLAGE :N                                        
                                                                                
*SUMMARY OF SOIL AND GENETIC INPUT PARAMETERS                                   
                                                                                
   SOIL LOWER UPPER   SAT  EXTR  INIT   ROOT   BULK     pH    NO3    NH4    ORG 
  DEPTH LIMIT LIMIT    SW    SW    SW   DIST   DENS                          C  
   cm   cm3/cm3    cm3/cm3    cm3/cm3         g/cm3         ugN/g  ugN/g     %  
------------------------------------------------------------------------------- 
  0-  5 0.160 0.252 0.376 0.092 0.252   1.00   1.69   6.60   0.00   0.00   0.45 
  5- 15 0.160 0.252 0.376 0.092 0.252   1.00   1.69   6.60   0.00   0.00   0.45 
 15- 30 0.160 0.252 0.376 0.092 0.252   1.00   1.69   6.60   0.00   0.00   0.45 
 30- 53 0.120 0.200 0.440 0.080 0.200   0.27   1.40   7.10   0.00   0.00   0.17 
 53- 77 0.120 0.200 0.440 0.080 0.200   0.27   1.40   7.10   0.00   0.00   0.17 
 77-100 0.120 0.200 0.440 0.080 0.200   0.27   1.40   7.10   0.00   0.00   0.17 
                                                                                
TOT-100  13.2  21.6  42.1   8.4  21.6  <--cm   -  kg/ha-->    0.0    0.0  39475 
SOIL ALBEDO    : 0.09      EVAPORATION LIMIT : 6.00         MIN. FACTOR  : 1.00 
RUNOFF CURVE # :76.00      DRAINAGE RATE     : 0.60         FERT. FACTOR : 1.00 
                                                                                
 Maize      CULTIVAR :CI0001-P30F35             ECOTYPE :IB0001                 
 P1     : 200.00  P2     : 0.3000  P5     : 925.00                              
 G2     : 954.00  G3     :  7.000  PHINT  : 50.000                              


*SIMULATED CROP AND SOIL STATUS AT MAIN DEVELOPMENT STAGES

 RUN NO.     2     P07/19                  

        CROP GROWTH     BIOMASS         LEAF   CROP N     STRESS      STRESS                                           
   DATE  AGE STAGE        kg/ha    LAI   NUM  kg/ha  %   H2O  Nitr Phos1 Phos2  RSTG                                   
 ------  --- ----------   -----  -----  ----  ---  ---  ----  ----  ----  ----  ----                                   
 19 JUN    0 Start Sim        0   0.00   0.0    0  0.0  0.00  0.00  0.00  0.00     7
 19 JUL    0 Sowing           0   0.00   0.0    0  0.0  0.00  0.00  0.00  0.00     8
 20 JUL    1 Germinate        0   0.00   0.0    0  0.0  0.00  0.00  0.00  0.00     9
 24 JUL    5 Emergence       25   0.00   2.1    1  4.4  0.00  0.01  0.00  0.00     1
  2 AUG   14 End Juveni      75   0.16   6.6    2  3.3  0.04  0.00  0.00  0.00     2
  9 AUG   21 Floral Ini     274   0.50   9.6    6  2.2  0.13  0.10  0.00  0.00     3
  9 SEP   52 75% Silkin    2896   1.27  19.7   64  2.2  0.51  0.13  0.00  0.00     4
 18 SEP   61 Beg Gr Fil    3432   1.03  19.7   64  1.9  0.50  0.00  0.00  0.00     5
 22 OCT   95 End Gr Fil    5015   0.60  19.7   64  1.3  0.43  0.00  0.00  0.00     6
 25 OCT   98 Maturity      5015   0.60  19.7   64  1.3  0.28  0.00  0.00  0.00    10
 25 OCT   98 Harvest       5015   0.60  19.7   64  1.3  0.00  0.00  0.00  0.00    10


*MAIN GROWTH AND DEVELOPMENT VARIABLES

@     VARIABLE                                         SIMULATED     MEASURED
      --------                                         ---------     --------
      Anthesis day (dap)                                      52          -99
      Physiological maturity day (dap)                        98          -99
      Yield at harvest maturity (kg [dm]/ha)                1675          -99
      Number at maturity (no/m2)                            1099          -99
      Unit wt at maturity (g [dm]/unit)                   0.1525          -99
      Number at maturity (no/unit)                         177.2          -99
      Tops weight at maturity (kg [dm]/ha)                  5015          -99
      By-product produced (stalk) at maturity (kg[dm]/ha    3375          -99
      Leaf area index, maximum                              1.59          -99
      Harvest index at maturity                            0.334          -99
      Grain N at maturity (kg/ha)                             30          -99
      Tops N at maturity (kg/ha)                              64          -99
      Stem N at maturity (kg/ha)                              34          -99
      Grain N at maturity (%)                                1.8          -99
      Tops weight at anthesis (kg [dm]/ha)                  2873          -99
      Tops N at anthesis (kg/ha)                              64          -99
      Leaf number per stem at maturity                     19.74          -99
      Emergence day (dap)                                      5          -99


*ENVIRONMENTAL AND STRESS FACTORS

 |-----Development Phase------|--------------------------------------Environment--------------------------------------|-----------------Stress-----------------|
                              |---------------Average--------------|-----Cumulative-----|--------Count of days--------|          (0=Min, 1=Max Stress)         |
                         Time  Temp  Temp  Temp Solar Photop                Evapo    Pot TMIN TMIN TMAX TMAX TMAX RAIN|----Water----|---Nitrogen--|-Phosphorus-|
                         Span   Max   Min  Mean   Rad  [day]    CO2   Rain  Trans     ET   <    <    >    >    >    >   Photo         Photo         Photo
                         days    邂    邂    邂 MJ/m2     hr    ppm     mm     mm     mm  0邂  2邂 30邂 32邂 34邂  0mm  synth Growth  synth Growth  synth Growth
----------------------------------------------------------------------------------------------------------------------------------------------------------------
 Emergence-End Juvenile     9  35.1  21.7  28.4  19.8  24.00  387.5    0.0    3.0   52.2    0    0    9    9    9    0  0.000  0.020  0.002  0.006  0.000  0.000
 End Juvenil-Floral Init    7  34.5  22.3  28.4  17.9  24.00  387.5    0.0    6.5   37.0    0    0    7    5    5    0  0.011  0.086  0.022  0.054  0.000  0.000
 Floral Init-End Lf Grow   31  34.5  22.0  28.2  20.2  22.29  387.6   48.0   73.3  172.7    0    0   30   28   20    7  0.330  0.492  0.071  0.140  0.000  0.000
 End Lf Grth-Beg Grn Fil    9  35.9  22.1  29.0  20.8  14.70  387.7  132.0   22.7   55.0    0    0    9    8    7    4  0.559  0.595  0.000  0.000  0.000  0.000
 Grain Filling Phase       34  35.2  22.3  28.8  20.8   6.31  387.9   14.5   92.3  202.8    0    0   34   31   24    4  0.308  0.403  0.000  0.000  0.000  0.000


 Planting to Harvest       98  34.8  22.1  28.5  20.1  15.73  387.7  215.8  205.1  561.7    0    0   96   87   67   18  0.279  0.376  0.024  0.049  0.000  0.000
----------------------------------------------------------------------------------------------------------------------------------------------------------------


*Resource Productivity
 Growing season length:  98 days 

 Precipitation during growing season       215.8 mm[rain]
   Dry Matter Productivity                  2.32 kg[DM]/m3[rain]          =   23.2 kg[DM]/ha per mm[rain]
   Yield Productivity                       0.78 kg[grain yield]/m3[rain] =    7.8 kg[yield]/ha per mm[rain]

 Evapotranspiration during growing season  205.1 mm[ET]
   Dry Matter Productivity                  2.45 kg[DM]/m3[ET]            =   24.5 kg[DM]/ha per mm[ET]
   Yield Productivity                       0.82 kg[grain yield]/m3[ET]   =    8.2 kg[yield]/ha per mm[ET]

 Transpiration during growing season       142.8 mm[EP]
   Dry Matter Productivity                  3.51 kg[DM]/m3[EP]            =   35.1 kg[DM]/ha per mm[EP]
   Yield Productivity                       1.17 kg[grain yield]/m3[EP]   =   11.7 kg[yield]/ha per mm[EP]

 N applied during growing season            162. kg[N applied]/ha
   Dry Matter Productivity                  31.0 kg[DM]/kg[N applied]
   Yield Productivity                       10.3 kg[yield]/kg[N applied]

 N uptake during growing season               70 kg[N uptake]/ha
   Dry Matter Productivity                  71.6 kg[DM]/kg[N uptake]
   Yield Productivity                       23.9 kg[yield]/kg[N uptake]

--------------------------------------------------------------------------------------------------------------

                     Maize YIELD :     1675 kg/ha    [Dry weight] 

**************************************************************************************************************

*DSSAT Cropping System Model Ver. 4.6.1.000 -release      OCT 24, 2017; 11:01:33
                                                                                
*RUN   3        : P07/24                    MZCER046 ANES2009    3              
 MODEL          : MZCER046 - Maize                                              
 EXPERIMENT     : ANES2009 MZ  MZ Analisis a침os de bajo rendimiento Espinal    
 DATA PATH      : C:\DSSAT46\maize\                                             
 TREATMENT  3   : P07/24                    MZCER046                            
                                                                                
                                                                                
 CROP           : Maize            CULTIVAR : P30F35           ECOTYPE :IB0001  
 STARTING DATE  : JUN 24 2009                                                   
 PLANTING DATE  : JUL 24 2009        PLANTS/m2 :  6.2     ROW SPACING :  80.cm  
 WEATHER        : CNAT   2009                                                   
 SOIL           : CCESPI2017     TEXTURE : SL    -   Suelo Espinal Calibraci    
 SOIL INITIAL C : DEPTH:100cm EXTR. H2O: 83.6mm  NO3:  0.0kg/ha  NH4:  0.0kg/ha 
 WATER BALANCE  : RAINFED                                                       
 IRRIGATION     : NOT IRRIGATED                                                 
 NITROGEN BAL.  : SOIL-N & N-UPTAKE SIMULATION; NO N-FIXATION                   
 N-FERTILIZER   :      162 kg/ha IN     6 APPLICATIONS                          
 RESIDUE/MANURE : INITIAL :     0 kg/ha ;       0 kg/ha IN     0 APPLICATIONS   
 ENVIRONM. OPT. : DAYL=    0.00  SRAD=    0.00  TMAX=    0.00  TMIN=    0.00    
                  RAIN=    0.00  CO2 =    0.00  DEW =    0.00  WIND=    0.00    
 SIMULATION OPT : WATER   :Y  NITROGEN:Y  N-FIX:N  PHOSPH :N  PESTS  :N         
                  PHOTO   :C  ET      :R  INFIL:S  HYDROL :R  SOM    :G         
                  CO2 387ppm  NSWIT   :1  EVAP :S  SOIL   :2  STEMP  :D         
 MANAGEMENT OPT : PLANTING:R  IRRIG   :N  FERT :D  RESIDUE:R  HARVEST:M         
                  WEATHER :M  TILLAGE :N                                        
                                                                                
*SUMMARY OF SOIL AND GENETIC INPUT PARAMETERS                                   
                                                                                
   SOIL LOWER UPPER   SAT  EXTR  INIT   ROOT   BULK     pH    NO3    NH4    ORG 
  DEPTH LIMIT LIMIT    SW    SW    SW   DIST   DENS                          C  
   cm   cm3/cm3    cm3/cm3    cm3/cm3         g/cm3         ugN/g  ugN/g     %  
------------------------------------------------------------------------------- 
  0-  5 0.160 0.252 0.376 0.092 0.252   1.00   1.69   6.60   0.00   0.00   0.45 
  5- 15 0.160 0.252 0.376 0.092 0.252   1.00   1.69   6.60   0.00   0.00   0.45 
 15- 30 0.160 0.252 0.376 0.092 0.252   1.00   1.69   6.60   0.00   0.00   0.45 
 30- 53 0.120 0.200 0.440 0.080 0.200   0.27   1.40   7.10   0.00   0.00   0.17 
 53- 77 0.120 0.200 0.440 0.080 0.200   0.27   1.40   7.10   0.00   0.00   0.17 
 77-100 0.120 0.200 0.440 0.080 0.200   0.27   1.40   7.10   0.00   0.00   0.17 
                                                                                
TOT-100  13.2  21.6  42.1   8.4  21.6  <--cm   -  kg/ha-->    0.0    0.0  39475 
SOIL ALBEDO    : 0.09      EVAPORATION LIMIT : 6.00         MIN. FACTOR  : 1.00 
RUNOFF CURVE # :76.00      DRAINAGE RATE     : 0.60         FERT. FACTOR : 1.00 
                                                                                
 Maize      CULTIVAR :CI0001-P30F35             ECOTYPE :IB0001                 
 P1     : 200.00  P2     : 0.3000  P5     : 925.00                              
 G2     : 954.00  G3     :  7.000  PHINT  : 50.000                              


*SIMULATED CROP AND SOIL STATUS AT MAIN DEVELOPMENT STAGES

 RUN NO.     3     P07/24                  

        CROP GROWTH     BIOMASS         LEAF   CROP N     STRESS      STRESS                                           
   DATE  AGE STAGE        kg/ha    LAI   NUM  kg/ha  %   H2O  Nitr Phos1 Phos2  RSTG                                   
 ------  --- ----------   -----  -----  ----  ---  ---  ----  ----  ----  ----  ----                                   
 24 JUN    0 Start Sim        0   0.00   0.0    0  0.0  0.00  0.00  0.00  0.00     7
 24 JUL    0 Sowing           0   0.00   0.0    0  0.0  0.00  0.00  0.00  0.00     8
 25 JUL    1 Germinate        0   0.00   0.0    0  0.0  0.00  0.00  0.00  0.00     9
 29 JUL    5 Emergence       25   0.00   2.1    1  4.4  0.00  0.01  0.00  0.00     1
  7 AUG   14 End Juveni      81   0.18   6.6    3  3.2  0.00  0.00  0.00  0.00     2
 14 AUG   21 Floral Ini     292   0.52   9.6    6  2.1  0.12  0.10  0.00  0.00     3
 14 SEP   52 75% Silkin    2817   1.27  20.1   67  2.4  0.51  0.03  0.00  0.00     4
 23 SEP   61 Beg Gr Fil    4401   1.27  20.1   67  1.5  0.00  0.00  0.00  0.00     5
 28 OCT   96 End Gr Fil    6830   0.58  20.1   79  1.2  0.54  0.00  0.00  0.00     6
 30 OCT   98 Maturity      6830   0.58  20.1   79  1.2  0.74  0.00  0.00  0.00    10
 30 OCT   98 Harvest       6830   0.58  20.1   79  1.2  0.00  0.00  0.00  0.00    10


*MAIN GROWTH AND DEVELOPMENT VARIABLES

@     VARIABLE                                         SIMULATED     MEASURED
      --------                                         ---------     --------
      Anthesis day (dap)                                      52          -99
      Physiological maturity day (dap)                        98          -99
      Yield at harvest maturity (kg [dm]/ha)                3051          -99
      Number at maturity (no/m2)                            2177          -99
      Unit wt at maturity (g [dm]/unit)                   0.1402          -99
      Number at maturity (no/unit)                         351.1          -99
      Tops weight at maturity (kg [dm]/ha)                  6830          -99
      By-product produced (stalk) at maturity (kg[dm]/ha    3816          -99
      Leaf area index, maximum                              1.70          -99
      Harvest index at maturity                            0.447          -99
      Grain N at maturity (kg/ha)                             56          -99
      Tops N at maturity (kg/ha)                              79          -99
      Stem N at maturity (kg/ha)                              23          -99
      Grain N at maturity (%)                                1.8          -99
      Tops weight at anthesis (kg [dm]/ha)                  2805          -99
      Tops N at anthesis (kg/ha)                              67          -99
      Leaf number per stem at maturity                     20.14          -99
      Emergence day (dap)                                      5          -99


*ENVIRONMENTAL AND STRESS FACTORS

 |-----Development Phase------|--------------------------------------Environment--------------------------------------|-----------------Stress-----------------|
                              |---------------Average--------------|-----Cumulative-----|--------Count of days--------|          (0=Min, 1=Max Stress)         |
                         Time  Temp  Temp  Temp Solar Photop                Evapo    Pot TMIN TMIN TMAX TMAX TMAX RAIN|----Water----|---Nitrogen--|-Phosphorus-|
                         Span   Max   Min  Mean   Rad  [day]    CO2   Rain  Trans     ET   <    <    >    >    >    >   Photo         Photo         Photo
                         days    邂    邂    邂 MJ/m2     hr    ppm     mm     mm     mm  0邂  2邂 30邂 32邂 34邂  0mm  synth Growth  synth Growth  synth Growth
----------------------------------------------------------------------------------------------------------------------------------------------------------------
 Emergence-End Juvenile     9  35.0  22.4  28.7  19.7  24.00  387.5    0.0    2.8   53.2    0    0    9    8    8    0  0.000  0.000  0.002  0.006  0.000  0.000
 End Juvenil-Floral Init    7  34.9  21.7  28.3  18.8  24.00  387.5    0.7    7.8   38.4    0    0    7    6    6    1  0.003  0.065  0.019  0.047  0.000  0.000
 Floral Init-End Lf Grow   31  34.7  22.2  28.5  20.3  20.91  387.7   49.8   76.5  174.0    0    0   30   28   20    7  0.376  0.491  0.017  0.042  0.000  0.000
 End Lf Grth-Beg Grn Fil    9  34.5  21.8  28.2  20.4  12.94  387.8  134.1   40.3   50.5    0    0    9    8    4    4  0.099  0.103  0.000  0.000  0.000  0.000
 Grain Filling Phase       35  35.0  22.3  28.6  20.4   4.38  388.0   31.2   79.6  204.0    0    0   34   30   25    6  0.439  0.535  0.000  0.000  0.000  0.000


 Planting to Harvest       98  34.9  22.1  28.5  20.2  14.51  387.7  218.0  212.6  561.8    0    0   96   87   70   19  0.291  0.369  0.007  0.017  0.000  0.000
----------------------------------------------------------------------------------------------------------------------------------------------------------------


*Resource Productivity
 Growing season length:  98 days 

 Precipitation during growing season       218.0 mm[rain]
   Dry Matter Productivity                  3.13 kg[DM]/m3[rain]          =   31.3 kg[DM]/ha per mm[rain]
   Yield Productivity                       1.40 kg[grain yield]/m3[rain] =   14.0 kg[yield]/ha per mm[rain]

 Evapotranspiration during growing season  212.6 mm[ET]
   Dry Matter Productivity                  3.21 kg[DM]/m3[ET]            =   32.1 kg[DM]/ha per mm[ET]
   Yield Productivity                       1.44 kg[grain yield]/m3[ET]   =   14.4 kg[yield]/ha per mm[ET]

 Transpiration during growing season       147.5 mm[EP]
   Dry Matter Productivity                  4.63 kg[DM]/m3[EP]            =   46.3 kg[DM]/ha per mm[EP]
   Yield Productivity                       2.07 kg[grain yield]/m3[EP]   =   20.7 kg[yield]/ha per mm[EP]

 N applied during growing season            162. kg[N applied]/ha
   Dry Matter Productivity                  42.2 kg[DM]/kg[N applied]
   Yield Productivity                       18.8 kg[yield]/kg[N applied]

 N uptake during growing season               90 kg[N uptake]/ha
   Dry Matter Productivity                  75.9 kg[DM]/kg[N uptake]
   Yield Productivity                       33.9 kg[yield]/kg[N uptake]

--------------------------------------------------------------------------------------------------------------

                     Maize YIELD :     3051 kg/ha    [Dry weight] 

**************************************************************************************************************

*DSSAT Cropping System Model Ver. 4.6.1.000 -release      OCT 24, 2017; 11:01:33
                                                                                
*RUN   4        : P07/29                    MZCER046 ANES2009    4              
 MODEL          : MZCER046 - Maize                                              
 EXPERIMENT     : ANES2009 MZ  MZ Analisis a침os de bajo rendimiento Espinal    
 DATA PATH      : C:\DSSAT46\maize\                                             
 TREATMENT  4   : P07/29                    MZCER046                            
                                                                                
                                                                                
 CROP           : Maize            CULTIVAR : P30F35           ECOTYPE :IB0001  
 STARTING DATE  : JUN 29 2009                                                   
 PLANTING DATE  : JUL 29 2009        PLANTS/m2 :  6.2     ROW SPACING :  80.cm  
 WEATHER        : CNAT   2009                                                   
 SOIL           : CCESPI2017     TEXTURE : SL    -   Suelo Espinal Calibraci    
 SOIL INITIAL C : DEPTH:100cm EXTR. H2O: 83.6mm  NO3:  0.0kg/ha  NH4:  0.0kg/ha 
 WATER BALANCE  : RAINFED                                                       
 IRRIGATION     : NOT IRRIGATED                                                 
 NITROGEN BAL.  : SOIL-N & N-UPTAKE SIMULATION; NO N-FIXATION                   
 N-FERTILIZER   :      162 kg/ha IN     6 APPLICATIONS                          
 RESIDUE/MANURE : INITIAL :     0 kg/ha ;       0 kg/ha IN     0 APPLICATIONS   
 ENVIRONM. OPT. : DAYL=    0.00  SRAD=    0.00  TMAX=    0.00  TMIN=    0.00    
                  RAIN=    0.00  CO2 =    0.00  DEW =    0.00  WIND=    0.00    
 SIMULATION OPT : WATER   :Y  NITROGEN:Y  N-FIX:N  PHOSPH :N  PESTS  :N         
                  PHOTO   :C  ET      :R  INFIL:S  HYDROL :R  SOM    :G         
                  CO2 387ppm  NSWIT   :1  EVAP :S  SOIL   :2  STEMP  :D         
 MANAGEMENT OPT : PLANTING:R  IRRIG   :N  FERT :D  RESIDUE:R  HARVEST:M         
                  WEATHER :M  TILLAGE :N                                        
                                                                                
*SUMMARY OF SOIL AND GENETIC INPUT PARAMETERS                                   
                                                                                
   SOIL LOWER UPPER   SAT  EXTR  INIT   ROOT   BULK     pH    NO3    NH4    ORG 
  DEPTH LIMIT LIMIT    SW    SW    SW   DIST   DENS                          C  
   cm   cm3/cm3    cm3/cm3    cm3/cm3         g/cm3         ugN/g  ugN/g     %  
------------------------------------------------------------------------------- 
  0-  5 0.160 0.252 0.376 0.092 0.252   1.00   1.69   6.60   0.00   0.00   0.45 
  5- 15 0.160 0.252 0.376 0.092 0.252   1.00   1.69   6.60   0.00   0.00   0.45 
 15- 30 0.160 0.252 0.376 0.092 0.252   1.00   1.69   6.60   0.00   0.00   0.45 
 30- 53 0.120 0.200 0.440 0.080 0.200   0.27   1.40   7.10   0.00   0.00   0.17 
 53- 77 0.120 0.200 0.440 0.080 0.200   0.27   1.40   7.10   0.00   0.00   0.17 
 77-100 0.120 0.200 0.440 0.080 0.200   0.27   1.40   7.10   0.00   0.00   0.17 
                                                                                
TOT-100  13.2  21.6  42.1   8.4  21.6  <--cm   -  kg/ha-->    0.0    0.0  39475 
SOIL ALBEDO    : 0.09      EVAPORATION LIMIT : 6.00         MIN. FACTOR  : 1.00 
RUNOFF CURVE # :76.00      DRAINAGE RATE     : 0.60         FERT. FACTOR : 1.00 
                                                                                
 Maize      CULTIVAR :CI0001-P30F35             ECOTYPE :IB0001                 
 P1     : 200.00  P2     : 0.3000  P5     : 925.00                              
 G2     : 954.00  G3     :  7.000  PHINT  : 50.000                              


*SIMULATED CROP AND SOIL STATUS AT MAIN DEVELOPMENT STAGES

 RUN NO.     4     P07/29                  

        CROP GROWTH     BIOMASS         LEAF   CROP N     STRESS      STRESS                                           
   DATE  AGE STAGE        kg/ha    LAI   NUM  kg/ha  %   H2O  Nitr Phos1 Phos2  RSTG                                   
 ------  --- ----------   -----  -----  ----  ---  ---  ----  ----  ----  ----  ----                                   
 29 JUN    0 Start Sim        0   0.00   0.0    0  0.0  0.00  0.00  0.00  0.00     7
 29 JUL    0 Sowing           0   0.00   0.0    0  0.0  0.00  0.00  0.00  0.00     8
 30 JUL    1 Germinate        0   0.00   0.0    0  0.0  0.00  0.00  0.00  0.00     9
  3 AUG    5 Emergence       25   0.00   2.2    1  4.4  0.00  0.01  0.00  0.00     1
 12 AUG   14 End Juveni      72   0.16   6.5    2  3.3  0.04  0.00  0.00  0.00     2
 19 AUG   21 Floral Ini     295   0.53   9.6   11  3.8  0.09  0.00  0.00  0.00     3
 20 SEP   53 75% Silkin    3695   1.65  19.7   71  1.9  0.41  0.00  0.00  0.00     4
 28 SEP   61 Beg Gr Fil    5131   1.50  19.7   73  1.4  0.40  0.00  0.00  0.00     5
  2 NOV   96 End Gr Fil    7318   0.55  19.7   87  1.2  0.67  0.00  0.00  0.00     6
  4 NOV   98 Maturity      7318   0.55  19.7   87  1.2  0.52  0.00  0.00  0.00    10
  4 NOV   98 Harvest       7318   0.55  19.7   87  1.2  0.00  0.00  0.00  0.00    10


*MAIN GROWTH AND DEVELOPMENT VARIABLES

@     VARIABLE                                         SIMULATED     MEASURED
      --------                                         ---------     --------
      Anthesis day (dap)                                      53          -99
      Physiological maturity day (dap)                        98          -99
      Yield at harvest maturity (kg [dm]/ha)                3263          -99
      Number at maturity (no/m2)                            2433          -99
      Unit wt at maturity (g [dm]/unit)                   0.1341          -99
      Number at maturity (no/unit)                         392.5          -99
      Tops weight at maturity (kg [dm]/ha)                  7318          -99
      By-product produced (stalk) at maturity (kg[dm]/ha    4096          -99
      Leaf area index, maximum                              1.71          -99
      Harvest index at maturity                            0.446          -99
      Grain N at maturity (kg/ha)                             60          -99
      Tops N at maturity (kg/ha)                              87          -99
      Stem N at maturity (kg/ha)                              27          -99
      Grain N at maturity (%)                                1.8          -99
      Tops weight at anthesis (kg [dm]/ha)                  3520          -99
      Tops N at anthesis (kg/ha)                              71          -99
      Leaf number per stem at maturity                     19.74          -99
      Emergence day (dap)                                      5          -99


*ENVIRONMENTAL AND STRESS FACTORS

 |-----Development Phase------|--------------------------------------Environment--------------------------------------|-----------------Stress-----------------|
                              |---------------Average--------------|-----Cumulative-----|--------Count of days--------|          (0=Min, 1=Max Stress)         |
                         Time  Temp  Temp  Temp Solar Photop                Evapo    Pot TMIN TMIN TMAX TMAX TMAX RAIN|----Water----|---Nitrogen--|-Phosphorus-|
                         Span   Max   Min  Mean   Rad  [day]    CO2   Rain  Trans     ET   <    <    >    >    >    >   Photo         Photo         Photo
                         days    邂    邂    邂 MJ/m2     hr    ppm     mm     mm     mm  0邂  2邂 30邂 32邂 34邂  0mm  synth Growth  synth Growth  synth Growth
----------------------------------------------------------------------------------------------------------------------------------------------------------------
 Emergence-End Juvenile     9  34.4  22.3  28.3  17.5  24.00  387.5    0.0    2.7   46.1    0    0    9    7    7    0  0.000  0.017  0.002  0.005  0.000  0.000
 End Juvenil-Floral Init    7  34.5  22.7  28.6  19.3  24.00  387.6    9.7    9.4   40.1    0    0    7    6    4    2  0.000  0.035  0.000  0.001  0.000  0.000
 Floral Init-End Lf Grow   32  34.8  22.0  28.4  20.8  19.03  387.7  170.3   95.1  184.8    0    0   31   29   21    9  0.342  0.431  0.000  0.000  0.000  0.000
 End Lf Grth-Beg Grn Fil    8  35.6  22.1  28.8  21.9  11.06  387.9    4.6   33.1   48.7    0    0    8    8    6    1  0.194  0.329  0.000  0.000  0.000  0.000
 Grain Filling Phase       35  34.6  22.3  28.5  19.7   2.87  388.0   34.3   57.3  195.3    0    0   34   28   22    9  0.570  0.663  0.000  0.000  0.000  0.000


 Planting to Harvest       98  34.7  22.2  28.4  20.0  13.28  387.8  221.6  201.2  556.1    0    0   96   84   65   23  0.342  0.422  0.000  0.000  0.000  0.000
----------------------------------------------------------------------------------------------------------------------------------------------------------------


*Resource Productivity
 Growing season length:  98 days 

 Precipitation during growing season       221.6 mm[rain]
   Dry Matter Productivity                  3.30 kg[DM]/m3[rain]          =   33.0 kg[DM]/ha per mm[rain]
   Yield Productivity                       1.47 kg[grain yield]/m3[rain] =   14.7 kg[yield]/ha per mm[rain]

 Evapotranspiration during growing season  201.2 mm[ET]
   Dry Matter Productivity                  3.64 kg[DM]/m3[ET]            =   36.4 kg[DM]/ha per mm[ET]
   Yield Productivity                       1.62 kg[grain yield]/m3[ET]   =   16.2 kg[yield]/ha per mm[ET]

 Transpiration during growing season       132.0 mm[EP]
   Dry Matter Productivity                  5.55 kg[DM]/m3[EP]            =   55.5 kg[DM]/ha per mm[EP]
   Yield Productivity                       2.47 kg[grain yield]/m3[EP]   =   24.7 kg[yield]/ha per mm[EP]

 N applied during growing season            162. kg[N applied]/ha
   Dry Matter Productivity                  45.2 kg[DM]/kg[N applied]
   Yield Productivity                       20.1 kg[yield]/kg[N applied]

 N uptake during growing season               95 kg[N uptake]/ha
   Dry Matter Productivity                  77.0 kg[DM]/kg[N uptake]
   Yield Productivity                       34.3 kg[yield]/kg[N uptake]

--------------------------------------------------------------------------------------------------------------

                     Maize YIELD :     3263 kg/ha    [Dry weight] 

**************************************************************************************************************

*DSSAT Cropping System Model Ver. 4.6.1.000 -release      OCT 24, 2017; 11:01:33
                                                                                
*RUN   5        : P08/03                    MZCER046 ANES2009    5              
 MODEL          : MZCER046 - Maize                                              
 EXPERIMENT     : ANES2009 MZ  MZ Analisis a침os de bajo rendimiento Espinal    
 DATA PATH      : C:\DSSAT46\maize\                                             
 TREATMENT  5   : P08/03                    MZCER046                            
                                                                                
                                                                                
 CROP           : Maize            CULTIVAR : P30F35           ECOTYPE :IB0001  
 STARTING DATE  : JUL  4 2009                                                   
 PLANTING DATE  : AUG  3 2009        PLANTS/m2 :  6.2     ROW SPACING :  80.cm  
 WEATHER        : CNAT   2009                                                   
 SOIL           : CCESPI2017     TEXTURE : SL    -   Suelo Espinal Calibraci    
 SOIL INITIAL C : DEPTH:100cm EXTR. H2O: 83.6mm  NO3:  0.0kg/ha  NH4:  0.0kg/ha 
 WATER BALANCE  : RAINFED                                                       
 IRRIGATION     : NOT IRRIGATED                                                 
 NITROGEN BAL.  : SOIL-N & N-UPTAKE SIMULATION; NO N-FIXATION                   
 N-FERTILIZER   :      162 kg/ha IN     6 APPLICATIONS                          
 RESIDUE/MANURE : INITIAL :     0 kg/ha ;       0 kg/ha IN     0 APPLICATIONS   
 ENVIRONM. OPT. : DAYL=    0.00  SRAD=    0.00  TMAX=    0.00  TMIN=    0.00    
                  RAIN=    0.00  CO2 =    0.00  DEW =    0.00  WIND=    0.00    
 SIMULATION OPT : WATER   :Y  NITROGEN:Y  N-FIX:N  PHOSPH :N  PESTS  :N         
                  PHOTO   :C  ET      :R  INFIL:S  HYDROL :R  SOM    :G         
                  CO2 387ppm  NSWIT   :1  EVAP :S  SOIL   :2  STEMP  :D         
 MANAGEMENT OPT : PLANTING:R  IRRIG   :N  FERT :D  RESIDUE:R  HARVEST:M         
                  WEATHER :M  TILLAGE :N                                        
                                                                                
*SUMMARY OF SOIL AND GENETIC INPUT PARAMETERS                                   
                                                                                
   SOIL LOWER UPPER   SAT  EXTR  INIT   ROOT   BULK     pH    NO3    NH4    ORG 
  DEPTH LIMIT LIMIT    SW    SW    SW   DIST   DENS                          C  
   cm   cm3/cm3    cm3/cm3    cm3/cm3         g/cm3         ugN/g  ugN/g     %  
------------------------------------------------------------------------------- 
  0-  5 0.160 0.252 0.376 0.092 0.252   1.00   1.69   6.60   0.00   0.00   0.45 
  5- 15 0.160 0.252 0.376 0.092 0.252   1.00   1.69   6.60   0.00   0.00   0.45 
 15- 30 0.160 0.252 0.376 0.092 0.252   1.00   1.69   6.60   0.00   0.00   0.45 
 30- 53 0.120 0.200 0.440 0.080 0.200   0.27   1.40   7.10   0.00   0.00   0.17 
 53- 77 0.120 0.200 0.440 0.080 0.200   0.27   1.40   7.10   0.00   0.00   0.17 
 77-100 0.120 0.200 0.440 0.080 0.200   0.27   1.40   7.10   0.00   0.00   0.17 
                                                                                
TOT-100  13.2  21.6  42.1   8.4  21.6  <--cm   -  kg/ha-->    0.0    0.0  39475 
SOIL ALBEDO    : 0.09      EVAPORATION LIMIT : 6.00         MIN. FACTOR  : 1.00 
RUNOFF CURVE # :76.00      DRAINAGE RATE     : 0.60         FERT. FACTOR : 1.00 
                                                                                
 Maize      CULTIVAR :CI0001-P30F35             ECOTYPE :IB0001                 
 P1     : 200.00  P2     : 0.3000  P5     : 925.00                              
 G2     : 954.00  G3     :  7.000  PHINT  : 50.000                              


*SIMULATED CROP AND SOIL STATUS AT MAIN DEVELOPMENT STAGES

 RUN NO.     5     P08/03                  

        CROP GROWTH     BIOMASS         LEAF   CROP N     STRESS      STRESS                                           
   DATE  AGE STAGE        kg/ha    LAI   NUM  kg/ha  %   H2O  Nitr Phos1 Phos2  RSTG                                   
 ------  --- ----------   -----  -----  ----  ---  ---  ----  ----  ----  ----  ----                                   
  4 JUL    0 Start Sim        0   0.00   0.0    0  0.0  0.00  0.00  0.00  0.00     7
  3 AUG    0 Sowing           0   0.00   0.0    0  0.0  0.00  0.00  0.00  0.00     8
  4 AUG    1 Germinate        0   0.00   0.0    0  0.0  0.00  0.00  0.00  0.00     9
  8 AUG    5 Emergence       25   0.00   2.1    1  4.4  0.00  0.01  0.00  0.00     1
 17 AUG   14 End Juveni      79   0.17   6.5    3  3.3  0.00  0.00  0.00  0.00     2
 23 AUG   20 Floral Ini     229   0.43   9.1    9  3.8  0.17  0.00  0.00  0.00     3
 22 SEP   50 75% Silkin    3077   1.39  18.9   61  2.0  0.38  0.00  0.00  0.00     4
 30 SEP   58 Beg Gr Fil    3849   1.14  18.9   64  1.7  0.67  0.00  0.00  0.00     5
  5 NOV   94 End Gr Fil    6007   0.48  18.9   74  1.2  0.60  0.00  0.00  0.00     6
  7 NOV   96 Maturity      6007   0.48  18.9   74  1.2  0.82  0.00  0.00  0.00    10
  7 NOV   96 Harvest       6007   0.48  18.9   74  1.2  0.00  0.00  0.00  0.00    10


*MAIN GROWTH AND DEVELOPMENT VARIABLES

@     VARIABLE                                         SIMULATED     MEASURED
      --------                                         ---------     --------
      Anthesis day (dap)                                      50          -99
      Physiological maturity day (dap)                        96          -99
      Yield at harvest maturity (kg [dm]/ha)                2517          -99
      Number at maturity (no/m2)                            1642          -99
      Unit wt at maturity (g [dm]/unit)                   0.1533          -99
      Number at maturity (no/unit)                         264.9          -99
      Tops weight at maturity (kg [dm]/ha)                  6007          -99
      By-product produced (stalk) at maturity (kg[dm]/ha    3521          -99
      Leaf area index, maximum                              1.39          -99
      Harvest index at maturity                            0.419          -99
      Grain N at maturity (kg/ha)                             46          -99
      Tops N at maturity (kg/ha)                              74          -99
      Stem N at maturity (kg/ha)                              28          -99
      Grain N at maturity (%)                                1.8          -99
      Tops weight at anthesis (kg [dm]/ha)                  2899          -99
      Tops N at anthesis (kg/ha)                              60          -99
      Leaf number per stem at maturity                     18.92          -99
      Emergence day (dap)                                      5          -99


*ENVIRONMENTAL AND STRESS FACTORS

 |-----Development Phase------|--------------------------------------Environment--------------------------------------|-----------------Stress-----------------|
                              |---------------Average--------------|-----Cumulative-----|--------Count of days--------|          (0=Min, 1=Max Stress)         |
                         Time  Temp  Temp  Temp Solar Photop                Evapo    Pot TMIN TMIN TMAX TMAX TMAX RAIN|----Water----|---Nitrogen--|-Phosphorus-|
                         Span   Max   Min  Mean   Rad  [day]    CO2   Rain  Trans     ET   <    <    >    >    >    >   Photo         Photo         Photo
                         days    邂    邂    邂 MJ/m2     hr    ppm     mm     mm     mm  0邂  2邂 30邂 32邂 34邂  0mm  synth Growth  synth Growth  synth Growth
----------------------------------------------------------------------------------------------------------------------------------------------------------------
 Emergence-End Juvenile     9  34.8  22.2  28.5  19.3  24.00  387.5    9.7    3.3   52.0    0    0    9    8    7    2  0.000  0.000  0.002  0.006  0.000  0.000
 End Juvenil-Floral Init    6  33.5  22.8  28.1  17.7  24.00  387.7    3.5    9.9   30.7    0    0    6    5    2    2  0.000  0.068  0.000  0.000  0.000  0.000
 Floral Init-End Lf Grow   30  34.9  21.9  28.4  21.0  17.90  387.7  171.4   92.4  178.0    0    0   29   27   20    8  0.353  0.402  0.000  0.000  0.000  0.000
 End Lf Grth-Beg Grn Fil    8  36.0  22.1  29.0  22.0  10.37  387.9    0.0   21.6   50.5    0    0    8    8    7    0  0.420  0.572  0.000  0.000  0.000  0.000
 Grain Filling Phase       36  34.3  22.3  28.3  19.5   2.28  388.0   37.2   61.4  199.2    0    0   35   28   20   12  0.486  0.598  0.000  0.000  0.000  0.000


 Planting to Harvest       96  34.6  22.2  28.4  19.8  12.31  387.8  222.4  191.4  543.0    0    0   94   82   60   25  0.341  0.418  0.000  0.001  0.000  0.000
----------------------------------------------------------------------------------------------------------------------------------------------------------------


*Resource Productivity
 Growing season length:  96 days 

 Precipitation during growing season       222.4 mm[rain]
   Dry Matter Productivity                  2.70 kg[DM]/m3[rain]          =   27.0 kg[DM]/ha per mm[rain]
   Yield Productivity                       1.13 kg[grain yield]/m3[rain] =   11.3 kg[yield]/ha per mm[rain]

 Evapotranspiration during growing season  191.4 mm[ET]
   Dry Matter Productivity                  3.14 kg[DM]/m3[ET]            =   31.4 kg[DM]/ha per mm[ET]
   Yield Productivity                       1.32 kg[grain yield]/m3[ET]   =   13.2 kg[yield]/ha per mm[ET]

 Transpiration during growing season       111.5 mm[EP]
   Dry Matter Productivity                  5.39 kg[DM]/m3[EP]            =   53.9 kg[DM]/ha per mm[EP]
   Yield Productivity                       2.26 kg[grain yield]/m3[EP]   =   22.6 kg[yield]/ha per mm[EP]

 N applied during growing season            162. kg[N applied]/ha
   Dry Matter Productivity                  37.1 kg[DM]/kg[N applied]
   Yield Productivity                       15.5 kg[yield]/kg[N applied]

 N uptake during growing season               80 kg[N uptake]/ha
   Dry Matter Productivity                  75.1 kg[DM]/kg[N uptake]
   Yield Productivity                       31.5 kg[yield]/kg[N uptake]

--------------------------------------------------------------------------------------------------------------

                     Maize YIELD :     2517 kg/ha    [Dry weight] 

**************************************************************************************************************

*DSSAT Cropping System Model Ver. 4.6.1.000 -release      OCT 24, 2017; 11:01:33
                                                                                
*RUN   6        : P08/08                    MZCER046 ANES2009    6              
 MODEL          : MZCER046 - Maize                                              
 EXPERIMENT     : ANES2009 MZ  MZ Analisis a침os de bajo rendimiento Espinal    
 DATA PATH      : C:\DSSAT46\maize\                                             
 TREATMENT  6   : P08/08                    MZCER046                            
                                                                                
                                                                                
 CROP           : Maize            CULTIVAR : P30F35           ECOTYPE :IB0001  
 STARTING DATE  : JUL  9 2009                                                   
 PLANTING DATE  : AUG  8 2009        PLANTS/m2 :  6.2     ROW SPACING :  80.cm  
 WEATHER        : CNAT   2009                                                   
 SOIL           : CCESPI2017     TEXTURE : SL    -   Suelo Espinal Calibraci    
 SOIL INITIAL C : DEPTH:100cm EXTR. H2O: 83.6mm  NO3:  0.0kg/ha  NH4:  0.0kg/ha 
 WATER BALANCE  : RAINFED                                                       
 IRRIGATION     : NOT IRRIGATED                                                 
 NITROGEN BAL.  : SOIL-N & N-UPTAKE SIMULATION; NO N-FIXATION                   
 N-FERTILIZER   :      162 kg/ha IN     6 APPLICATIONS                          
 RESIDUE/MANURE : INITIAL :     0 kg/ha ;       0 kg/ha IN     0 APPLICATIONS   
 ENVIRONM. OPT. : DAYL=    0.00  SRAD=    0.00  TMAX=    0.00  TMIN=    0.00    
                  RAIN=    0.00  CO2 =    0.00  DEW =    0.00  WIND=    0.00    
 SIMULATION OPT : WATER   :Y  NITROGEN:Y  N-FIX:N  PHOSPH :N  PESTS  :N         
                  PHOTO   :C  ET      :R  INFIL:S  HYDROL :R  SOM    :G         
                  CO2 387ppm  NSWIT   :1  EVAP :S  SOIL   :2  STEMP  :D         
 MANAGEMENT OPT : PLANTING:R  IRRIG   :N  FERT :D  RESIDUE:R  HARVEST:M         
                  WEATHER :M  TILLAGE :N                                        
                                                                                
*SUMMARY OF SOIL AND GENETIC INPUT PARAMETERS                                   
                                                                                
   SOIL LOWER UPPER   SAT  EXTR  INIT   ROOT   BULK     pH    NO3    NH4    ORG 
  DEPTH LIMIT LIMIT    SW    SW    SW   DIST   DENS                          C  
   cm   cm3/cm3    cm3/cm3    cm3/cm3         g/cm3         ugN/g  ugN/g     %  
------------------------------------------------------------------------------- 
  0-  5 0.160 0.252 0.376 0.092 0.252   1.00   1.69   6.60   0.00   0.00   0.45 
  5- 15 0.160 0.252 0.376 0.092 0.252   1.00   1.69   6.60   0.00   0.00   0.45 
 15- 30 0.160 0.252 0.376 0.092 0.252   1.00   1.69   6.60   0.00   0.00   0.45 
 30- 53 0.120 0.200 0.440 0.080 0.200   0.27   1.40   7.10   0.00   0.00   0.17 
 53- 77 0.120 0.200 0.440 0.080 0.200   0.27   1.40   7.10   0.00   0.00   0.17 
 77-100 0.120 0.200 0.440 0.080 0.200   0.27   1.40   7.10   0.00   0.00   0.17 
                                                                                
TOT-100  13.2  21.6  42.1   8.4  21.6  <--cm   -  kg/ha-->    0.0    0.0  39475 
SOIL ALBEDO    : 0.09      EVAPORATION LIMIT : 6.00         MIN. FACTOR  : 1.00 
RUNOFF CURVE # :76.00      DRAINAGE RATE     : 0.60         FERT. FACTOR : 1.00 
                                                                                
 Maize      CULTIVAR :CI0001-P30F35             ECOTYPE :IB0001                 
 P1     : 200.00  P2     : 0.3000  P5     : 925.00                              
 G2     : 954.00  G3     :  7.000  PHINT  : 50.000                              


*SIMULATED CROP AND SOIL STATUS AT MAIN DEVELOPMENT STAGES

 RUN NO.     6     P08/08                  

        CROP GROWTH     BIOMASS         LEAF   CROP N     STRESS      STRESS                                           
   DATE  AGE STAGE        kg/ha    LAI   NUM  kg/ha  %   H2O  Nitr Phos1 Phos2  RSTG                                   
 ------  --- ----------   -----  -----  ----  ---  ---  ----  ----  ----  ----  ----                                   
  9 JUL    0 Start Sim        0   0.00   0.0    0  0.0  0.00  0.00  0.00  0.00     7
  8 AUG    0 Sowing           0   0.00   0.0    0  0.0  0.00  0.00  0.00  0.00     8
  9 AUG    1 Germinate        0   0.00   0.0    0  0.0  0.00  0.00  0.00  0.00     9
 13 AUG    5 Emergence       25   0.00   2.2    1  4.4  0.00  0.01  0.00  0.00     1
 22 AUG   14 End Juveni      76   0.17   6.6    2  3.1  0.03  0.00  0.00  0.00     2
 28 AUG   20 Floral Ini     253   0.48   9.0    9  3.6  0.06  0.00  0.00  0.00     3
 27 SEP   50 75% Silkin    3230   1.36  18.9   62  1.9  0.42  0.00  0.00  0.00     4
  5 OCT   58 Beg Gr Fil    3968   1.13  18.9   63  1.6  0.63  0.00  0.00  0.00     5
  9 NOV   93 End Gr Fil    5733   0.43  18.9   69  1.2  0.66  0.00  0.00  0.00     6
 11 NOV   95 Maturity      5733   0.43  18.9   69  1.2  0.77  0.00  0.00  0.00    10
 11 NOV   95 Harvest       5733   0.43  18.9   69  1.2  0.00  0.00  0.00  0.00    10


*MAIN GROWTH AND DEVELOPMENT VARIABLES

@     VARIABLE                                         SIMULATED     MEASURED
      --------                                         ---------     --------
      Anthesis day (dap)                                      50          -99
      Physiological maturity day (dap)                        95          -99
      Yield at harvest maturity (kg [dm]/ha)                2282          -99
      Number at maturity (no/m2)                            1573          -99
      Unit wt at maturity (g [dm]/unit)                   0.1450          -99
      Number at maturity (no/unit)                         253.8          -99
      Tops weight at maturity (kg [dm]/ha)                  5733          -99
      By-product produced (stalk) at maturity (kg[dm]/ha    3482          -99
      Leaf area index, maximum                              1.38          -99
      Harvest index at maturity                            0.398          -99
      Grain N at maturity (kg/ha)                             42          -99
      Tops N at maturity (kg/ha)                              69          -99
      Stem N at maturity (kg/ha)                              27          -99
      Grain N at maturity (%)                                1.8          -99
      Tops weight at anthesis (kg [dm]/ha)                  3051          -99
      Tops N at anthesis (kg/ha)                              61          -99
      Leaf number per stem at maturity                     18.95          -99
      Emergence day (dap)                                      5          -99


*ENVIRONMENTAL AND STRESS FACTORS

 |-----Development Phase------|--------------------------------------Environment--------------------------------------|-----------------Stress-----------------|
                              |---------------Average--------------|-----Cumulative-----|--------Count of days--------|          (0=Min, 1=Max Stress)         |
                         Time  Temp  Temp  Temp Solar Photop                Evapo    Pot TMIN TMIN TMAX TMAX TMAX RAIN|----Water----|---Nitrogen--|-Phosphorus-|
                         Span   Max   Min  Mean   Rad  [day]    CO2   Rain  Trans     ET   <    <    >    >    >    >   Photo         Photo         Photo
                         days    邂    邂    邂 MJ/m2     hr    ppm     mm     mm     mm  0邂  2邂 30邂 32邂 34邂  0mm  synth Growth  synth Growth  synth Growth
----------------------------------------------------------------------------------------------------------------------------------------------------------------
 Emergence-End Juvenile     9  34.0  23.3  28.7  17.5  24.00  387.6   13.2    6.7   47.2    0    0    9    8    4    4  0.000  0.026  0.002  0.005  0.000  0.000
 End Juvenil-Floral Init    6  33.4  20.8  27.1  21.1  24.00  387.7   21.5   22.1   36.2    0    0    5    5    3    1  0.005  0.059  0.000  0.001  0.000  0.000
 Floral Init-End Lf Grow   30  35.4  22.1  28.7  21.4  15.72  387.7  149.9   92.4  185.0    0    0   30   28   22    7  0.326  0.402  0.000  0.000  0.000  0.000
 End Lf Grth-Beg Grn Fil    8  36.4  22.6  29.5  21.4   8.56  387.9    0.4   19.5   50.0    0    0    8    8    8    1  0.432  0.612  0.000  0.000  0.000  0.000
 Grain Filling Phase       35  33.9  22.3  28.1  18.7   1.20  388.0   37.4   54.5  183.3    0    0   34   27   15   12  0.559  0.657  0.000  0.000  0.000  0.000


 Planting to Harvest       95  34.6  22.2  28.4  19.9  11.18  387.8  235.2  198.5  541.9    0    0   93   82   58   27  0.362  0.444  0.000  0.001  0.000  0.000
----------------------------------------------------------------------------------------------------------------------------------------------------------------


*Resource Productivity
 Growing season length:  95 days 

 Precipitation during growing season       235.2 mm[rain]
   Dry Matter Productivity                  2.44 kg[DM]/m3[rain]          =   24.4 kg[DM]/ha per mm[rain]
   Yield Productivity                       0.97 kg[grain yield]/m3[rain] =    9.7 kg[yield]/ha per mm[rain]

 Evapotranspiration during growing season  198.5 mm[ET]
   Dry Matter Productivity                  2.89 kg[DM]/m3[ET]            =   28.9 kg[DM]/ha per mm[ET]
   Yield Productivity                       1.15 kg[grain yield]/m3[ET]   =   11.5 kg[yield]/ha per mm[ET]

 Transpiration during growing season       109.5 mm[EP]
   Dry Matter Productivity                  5.23 kg[DM]/m3[EP]            =   52.3 kg[DM]/ha per mm[EP]
   Yield Productivity                       2.08 kg[grain yield]/m3[EP]   =   20.8 kg[yield]/ha per mm[EP]

 N applied during growing season            162. kg[N applied]/ha
   Dry Matter Productivity                  35.4 kg[DM]/kg[N applied]
   Yield Productivity                       14.1 kg[yield]/kg[N applied]

 N uptake during growing season               75 kg[N uptake]/ha
   Dry Matter Productivity                  76.4 kg[DM]/kg[N uptake]
   Yield Productivity                       30.4 kg[yield]/kg[N uptake]

--------------------------------------------------------------------------------------------------------------

                     Maize YIELD :     2282 kg/ha    [Dry weight] 

**************************************************************************************************************

*DSSAT Cropping System Model Ver. 4.6.1.000 -release      OCT 24, 2017; 11:01:34
                                                                                
*RUN   7        : P08/13                    MZCER046 ANES2009    7              
 MODEL          : MZCER046 - Maize                                              
 EXPERIMENT     : ANES2009 MZ  MZ Analisis a침os de bajo rendimiento Espinal    
 DATA PATH      : C:\DSSAT46\maize\                                             
 TREATMENT  7   : P08/13                    MZCER046                            
                                                                                
                                                                                
 CROP           : Maize            CULTIVAR : P30F35           ECOTYPE :IB0001  
 STARTING DATE  : JUL 14 2009                                                   
 PLANTING DATE  : AUG 13 2009        PLANTS/m2 :  6.2     ROW SPACING :  80.cm  
 WEATHER        : CNAT   2009                                                   
 SOIL           : CCESPI2017     TEXTURE : SL    -   Suelo Espinal Calibraci    
 SOIL INITIAL C : DEPTH:100cm EXTR. H2O: 83.6mm  NO3:  0.0kg/ha  NH4:  0.0kg/ha 
 WATER BALANCE  : RAINFED                                                       
 IRRIGATION     : NOT IRRIGATED                                                 
 NITROGEN BAL.  : SOIL-N & N-UPTAKE SIMULATION; NO N-FIXATION                   
 N-FERTILIZER   :      162 kg/ha IN     6 APPLICATIONS                          
 RESIDUE/MANURE : INITIAL :     0 kg/ha ;       0 kg/ha IN     0 APPLICATIONS   
 ENVIRONM. OPT. : DAYL=    0.00  SRAD=    0.00  TMAX=    0.00  TMIN=    0.00    
                  RAIN=    0.00  CO2 =    0.00  DEW =    0.00  WIND=    0.00    
 SIMULATION OPT : WATER   :Y  NITROGEN:Y  N-FIX:N  PHOSPH :N  PESTS  :N         
                  PHOTO   :C  ET      :R  INFIL:S  HYDROL :R  SOM    :G         
                  CO2 387ppm  NSWIT   :1  EVAP :S  SOIL   :2  STEMP  :D         
 MANAGEMENT OPT : PLANTING:R  IRRIG   :N  FERT :D  RESIDUE:R  HARVEST:M         
                  WEATHER :M  TILLAGE :N                                        
                                                                                
*SUMMARY OF SOIL AND GENETIC INPUT PARAMETERS                                   
                                                                                
   SOIL LOWER UPPER   SAT  EXTR  INIT   ROOT   BULK     pH    NO3    NH4    ORG 
  DEPTH LIMIT LIMIT    SW    SW    SW   DIST   DENS                          C  
   cm   cm3/cm3    cm3/cm3    cm3/cm3         g/cm3         ugN/g  ugN/g     %  
------------------------------------------------------------------------------- 
  0-  5 0.160 0.252 0.376 0.092 0.252   1.00   1.69   6.60   0.00   0.00   0.45 
  5- 15 0.160 0.252 0.376 0.092 0.252   1.00   1.69   6.60   0.00   0.00   0.45 
 15- 30 0.160 0.252 0.376 0.092 0.252   1.00   1.69   6.60   0.00   0.00   0.45 
 30- 53 0.120 0.200 0.440 0.080 0.200   0.27   1.40   7.10   0.00   0.00   0.17 
 53- 77 0.120 0.200 0.440 0.080 0.200   0.27   1.40   7.10   0.00   0.00   0.17 
 77-100 0.120 0.200 0.440 0.080 0.200   0.27   1.40   7.10   0.00   0.00   0.17 
                                                                                
TOT-100  13.2  21.6  42.1   8.4  21.6  <--cm   -  kg/ha-->    0.0    0.0  39475 
SOIL ALBEDO    : 0.09      EVAPORATION LIMIT : 6.00         MIN. FACTOR  : 1.00 
RUNOFF CURVE # :76.00      DRAINAGE RATE     : 0.60         FERT. FACTOR : 1.00 
                                                                                
 Maize      CULTIVAR :CI0001-P30F35             ECOTYPE :IB0001                 
 P1     : 200.00  P2     : 0.3000  P5     : 925.00                              
 G2     : 954.00  G3     :  7.000  PHINT  : 50.000                              


*SIMULATED CROP AND SOIL STATUS AT MAIN DEVELOPMENT STAGES

 RUN NO.     7     P08/13                  

        CROP GROWTH     BIOMASS         LEAF   CROP N     STRESS      STRESS                                           
   DATE  AGE STAGE        kg/ha    LAI   NUM  kg/ha  %   H2O  Nitr Phos1 Phos2  RSTG                                   
 ------  --- ----------   -----  -----  ----  ---  ---  ----  ----  ----  ----  ----                                   
 14 JUL    0 Start Sim        0   0.00   0.0    0  0.0  0.00  0.00  0.00  0.00     7
 13 AUG    0 Sowing           0   0.00   0.0    0  0.0  0.00  0.00  0.00  0.00     8
 14 AUG    1 Germinate        0   0.00   0.0    0  0.0  0.00  0.00  0.00  0.00     9
 18 AUG    5 Emergence       25   0.00   2.1    1  4.4  0.00  0.01  0.00  0.00     1
 28 AUG   15 End Juveni      91   0.20   6.8    3  3.2  0.00  0.00  0.00  0.00     2
  2 SEP   20 Floral Ini     252   0.48   9.0    9  3.6  0.06  0.00  0.00  0.00     3
  1 OCT   49 75% Silkin    3421   1.54  19.0   71  2.1  0.42  0.00  0.00  0.00     4
  9 OCT   57 Beg Gr Fil    4024   1.22  19.0   72  1.8  0.71  0.00  0.00  0.00     5
 14 NOV   93 End Gr Fil    5873   0.46  19.0   72  1.2  0.61  0.00  0.00  0.00     6
 17 NOV   96 Maturity      5873   0.46  19.0   72  1.2  0.73  0.00  0.00  0.00    10
 17 NOV   96 Harvest       5873   0.46  19.0   72  1.2  0.00  0.00  0.00  0.00    10


*MAIN GROWTH AND DEVELOPMENT VARIABLES

@     VARIABLE                                         SIMULATED     MEASURED
      --------                                         ---------     --------
      Anthesis day (dap)                                      49          -99
      Physiological maturity day (dap)                        96          -99
      Yield at harvest maturity (kg [dm]/ha)                2199          -99
      Number at maturity (no/m2)                            1409          -99
      Unit wt at maturity (g [dm]/unit)                   0.1560          -99
      Number at maturity (no/unit)                         227.3          -99
      Tops weight at maturity (kg [dm]/ha)                  5873          -99
      By-product produced (stalk) at maturity (kg[dm]/ha    3707          -99
      Leaf area index, maximum                              1.58          -99
      Harvest index at maturity                            0.374          -99
      Grain N at maturity (kg/ha)                             40          -99
      Tops N at maturity (kg/ha)                              72          -99
      Stem N at maturity (kg/ha)                              31          -99
      Grain N at maturity (%)                                1.8          -99
      Tops weight at anthesis (kg [dm]/ha)                  3269          -99
      Tops N at anthesis (kg/ha)                              70          -99
      Leaf number per stem at maturity                     18.96          -99
      Emergence day (dap)                                      5          -99


*ENVIRONMENTAL AND STRESS FACTORS

 |-----Development Phase------|--------------------------------------Environment--------------------------------------|-----------------Stress-----------------|
                              |---------------Average--------------|-----Cumulative-----|--------Count of days--------|          (0=Min, 1=Max Stress)         |
                         Time  Temp  Temp  Temp Solar Photop                Evapo    Pot TMIN TMIN TMAX TMAX TMAX RAIN|----Water----|---Nitrogen--|-Phosphorus-|
                         Span   Max   Min  Mean   Rad  [day]    CO2   Rain  Trans     ET   <    <    >    >    >    >   Photo         Photo         Photo
                         days    邂    邂    邂 MJ/m2     hr    ppm     mm     mm     mm  0邂  2邂 30邂 32邂 34邂  0mm  synth Growth  synth Growth  synth Growth
----------------------------------------------------------------------------------------------------------------------------------------------------------------
 Emergence-End Juvenile    10  33.5  21.8  27.7  19.1  24.00  387.7   25.0   23.1   56.1    0    0    9    9    4    3  0.000  0.000  0.002  0.005  0.000  0.000
 End Juvenil-Floral Init    5  34.8  22.2  28.5  21.2  21.91  387.7    0.8    8.1   30.9    0    0    5    5    4    1  0.000  0.011  0.001  0.004  0.000  0.000
 Floral Init-End Lf Grow   29  35.6  22.1  28.9  21.5  13.76  387.8  149.1   94.2  180.6    0    0   29   27   22    6  0.293  0.406  0.000  0.000  0.000  0.000
 End Lf Grth-Beg Grn Fil    8  36.1  23.1  29.6  20.2   6.96  387.9    0.4   16.4   46.4    0    0    8    8    7    1  0.521  0.681  0.000  0.000  0.000  0.000
 Grain Filling Phase       36  33.5  22.1  27.8  18.6   0.48  388.1   52.0   61.2  185.4    0    0   34   27   14   15  0.550  0.626  0.000  0.000  0.000  0.000


 Planting to Harvest       96  34.5  22.3  28.4  19.7   9.81  387.9  237.5  209.5  541.4    0    0   93   83   55   29  0.350  0.431  0.000  0.001  0.000  0.000
----------------------------------------------------------------------------------------------------------------------------------------------------------------


*Resource Productivity
 Growing season length:  96 days 

 Precipitation during growing season       237.5 mm[rain]
   Dry Matter Productivity                  2.47 kg[DM]/m3[rain]          =   24.7 kg[DM]/ha per mm[rain]
   Yield Productivity                       0.93 kg[grain yield]/m3[rain] =    9.3 kg[yield]/ha per mm[rain]

 Evapotranspiration during growing season  209.5 mm[ET]
   Dry Matter Productivity                  2.80 kg[DM]/m3[ET]            =   28.0 kg[DM]/ha per mm[ET]
   Yield Productivity                       1.05 kg[grain yield]/m3[ET]   =   10.5 kg[yield]/ha per mm[ET]

 Transpiration during growing season       114.4 mm[EP]
   Dry Matter Productivity                  5.13 kg[DM]/m3[EP]            =   51.3 kg[DM]/ha per mm[EP]
   Yield Productivity                       1.92 kg[grain yield]/m3[EP]   =   19.2 kg[yield]/ha per mm[EP]

 N applied during growing season            162. kg[N applied]/ha
   Dry Matter Productivity                  36.3 kg[DM]/kg[N applied]
   Yield Productivity                       13.6 kg[yield]/kg[N applied]

 N uptake during growing season               78 kg[N uptake]/ha
   Dry Matter Productivity                  75.3 kg[DM]/kg[N uptake]
   Yield Productivity                       28.2 kg[yield]/kg[N uptake]

--------------------------------------------------------------------------------------------------------------

                     Maize YIELD :     2199 kg/ha    [Dry weight] 

**************************************************************************************************************

*DSSAT Cropping System Model Ver. 4.6.1.000 -release      OCT 24, 2017; 11:01:35
                                                                                
*RUN   8        : P08/18                    MZCER046 ANES2009    8              
 MODEL          : MZCER046 - Maize                                              
 EXPERIMENT     : ANES2009 MZ  MZ Analisis a침os de bajo rendimiento Espinal    
 DATA PATH      : C:\DSSAT46\maize\                                             
 TREATMENT  8   : P08/18                    MZCER046                            
                                                                                
                                                                                
 CROP           : Maize            CULTIVAR : P30F35           ECOTYPE :IB0001  
 STARTING DATE  : JUL 19 2009                                                   
 PLANTING DATE  : AUG 18 2009        PLANTS/m2 :  6.2     ROW SPACING :  80.cm  
 WEATHER        : CNAT   2009                                                   
 SOIL           : CCESPI2017     TEXTURE : SL    -   Suelo Espinal Calibraci    
 SOIL INITIAL C : DEPTH:100cm EXTR. H2O: 83.6mm  NO3:  0.0kg/ha  NH4:  0.0kg/ha 
 WATER BALANCE  : RAINFED                                                       
 IRRIGATION     : NOT IRRIGATED                                                 
 NITROGEN BAL.  : SOIL-N & N-UPTAKE SIMULATION; NO N-FIXATION                   
 N-FERTILIZER   :      162 kg/ha IN     6 APPLICATIONS                          
 RESIDUE/MANURE : INITIAL :     0 kg/ha ;       0 kg/ha IN     0 APPLICATIONS   
 ENVIRONM. OPT. : DAYL=    0.00  SRAD=    0.00  TMAX=    0.00  TMIN=    0.00    
                  RAIN=    0.00  CO2 =    0.00  DEW =    0.00  WIND=    0.00    
 SIMULATION OPT : WATER   :Y  NITROGEN:Y  N-FIX:N  PHOSPH :N  PESTS  :N         
                  PHOTO   :C  ET      :R  INFIL:S  HYDROL :R  SOM    :G         
                  CO2 387ppm  NSWIT   :1  EVAP :S  SOIL   :2  STEMP  :D         
 MANAGEMENT OPT : PLANTING:R  IRRIG   :N  FERT :D  RESIDUE:R  HARVEST:M         
                  WEATHER :M  TILLAGE :N                                        
                                                                                
*SUMMARY OF SOIL AND GENETIC INPUT PARAMETERS                                   
                                                                                
   SOIL LOWER UPPER   SAT  EXTR  INIT   ROOT   BULK     pH    NO3    NH4    ORG 
  DEPTH LIMIT LIMIT    SW    SW    SW   DIST   DENS                          C  
   cm   cm3/cm3    cm3/cm3    cm3/cm3         g/cm3         ugN/g  ugN/g     %  
------------------------------------------------------------------------------- 
  0-  5 0.160 0.252 0.376 0.092 0.252   1.00   1.69   6.60   0.00   0.00   0.45 
  5- 15 0.160 0.252 0.376 0.092 0.252   1.00   1.69   6.60   0.00   0.00   0.45 
 15- 30 0.160 0.252 0.376 0.092 0.252   1.00   1.69   6.60   0.00   0.00   0.45 
 30- 53 0.120 0.200 0.440 0.080 0.200   0.27   1.40   7.10   0.00   0.00   0.17 
 53- 77 0.120 0.200 0.440 0.080 0.200   0.27   1.40   7.10   0.00   0.00   0.17 
 77-100 0.120 0.200 0.440 0.080 0.200   0.27   1.40   7.10   0.00   0.00   0.17 
                                                                                
TOT-100  13.2  21.6  42.1   8.4  21.6  <--cm   -  kg/ha-->    0.0    0.0  39475 
SOIL ALBEDO    : 0.09      EVAPORATION LIMIT : 6.00         MIN. FACTOR  : 1.00 
RUNOFF CURVE # :76.00      DRAINAGE RATE     : 0.60         FERT. FACTOR : 1.00 
                                                                                
 Maize      CULTIVAR :CI0001-P30F35             ECOTYPE :IB0001                 
 P1     : 200.00  P2     : 0.3000  P5     : 925.00                              
 G2     : 954.00  G3     :  7.000  PHINT  : 50.000                              


*SIMULATED CROP AND SOIL STATUS AT MAIN DEVELOPMENT STAGES

 RUN NO.     8     P08/18                  

        CROP GROWTH     BIOMASS         LEAF   CROP N     STRESS      STRESS                                           
   DATE  AGE STAGE        kg/ha    LAI   NUM  kg/ha  %   H2O  Nitr Phos1 Phos2  RSTG                                   
 ------  --- ----------   -----  -----  ----  ---  ---  ----  ----  ----  ----  ----                                   
 19 JUL    0 Start Sim        0   0.00   0.0    0  0.0  0.00  0.00  0.00  0.00     7
 18 AUG    0 Sowing           0   0.00   0.0    0  0.0  0.00  0.00  0.00  0.00     8
 19 AUG    1 Germinate        0   0.00   0.0    0  0.0  0.00  0.00  0.00  0.00     9
 23 AUG    5 Emergence       25   0.00   2.1    1  4.4  0.00  0.01  0.00  0.00     1
  2 SEP   15 End Juveni      96   0.21   6.9    3  3.1  0.00  0.00  0.00  0.00     2
  7 SEP   20 Floral Ini     271   0.50   9.0   10  3.6  0.00  0.00  0.00  0.00     3
  6 OCT   49 75% Silkin    3747   1.84  18.7   80  2.1  0.41  0.00  0.00  0.00     4
 15 OCT   58 Beg Gr Fil    4227   1.36  18.7   80  1.9  0.73  0.00  0.00  0.00     5
 19 NOV   93 End Gr Fil    5728   0.48  18.7   80  1.4  0.67  0.00  0.00  0.00     6
 22 NOV   96 Maturity      5728   0.48  18.7   80  1.4  0.89  0.00  0.00  0.00    10
 22 NOV   96 Harvest       5728   0.48  18.7   80  1.4  0.00  0.00  0.00  0.00    10


*MAIN GROWTH AND DEVELOPMENT VARIABLES

@     VARIABLE                                         SIMULATED     MEASURED
      --------                                         ---------     --------
      Anthesis day (dap)                                      49          -99
      Physiological maturity day (dap)                        96          -99
      Yield at harvest maturity (kg [dm]/ha)                1749          -99
      Number at maturity (no/m2)                            1193          -99
[...]
 WATER BALANCE  : RAINFED                                                       
 IRRIGATION     : NOT IRRIGATED                                                 
 NITROGEN BAL.  : SOIL-N & N-UPTAKE SIMULATION; NO N-FIXATION                   
 N-FERTILIZER   :      162 kg/ha IN     6 APPLICATIONS                          
 RESIDUE/MANURE : INITIAL :     0 kg/ha ;       0 kg/ha IN     0 APPLICATIONS   
 ENVIRONM. OPT. : DAYL=    0.00  SRAD=    0.00  TMAX=    0.00  TMIN=    0.00    
                  RAIN=    0.00  CO2 =    0.00  DEW =    0.00  WIND=    0.00    
 SIMULATION OPT : WATER   :Y  NITROGEN:Y  N-FIX:N  PHOSPH :N  PESTS  :N         
                  PHOTO   :C  ET      :R  INFIL:S  HYDROL :R  SOM    :G         
                  CO2 388ppm  NSWIT   :1  EVAP :S  SOIL   :2  STEMP  :D         
 MANAGEMENT OPT : PLANTING:R  IRRIG   :N  FERT :D  RESIDUE:R  HARVEST:M         
                  WEATHER :M  TILLAGE :N                                        
                                                                                
*SUMMARY OF SOIL AND GENETIC INPUT PARAMETERS                                   
                                                                                
   SOIL LOWER UPPER   SAT  EXTR  INIT   ROOT   BULK     pH    NO3    NH4    ORG 
  DEPTH LIMIT LIMIT    SW    SW    SW   DIST   DENS                          C  
   cm   cm3/cm3    cm3/cm3    cm3/cm3         g/cm3         ugN/g  ugN/g     %  
------------------------------------------------------------------------------- 
  0-  5 0.160 0.252 0.376 0.092 0.252   1.00   1.69   6.60   0.00   0.00   0.45 
  5- 15 0.160 0.252 0.376 0.092 0.252   1.00   1.69   6.60   0.00   0.00   0.45 
 15- 30 0.160 0.252 0.376 0.092 0.252   1.00   1.69   6.60   0.00   0.00   0.45 
 30- 53 0.120 0.200 0.440 0.080 0.200   0.27   1.40   7.10   0.00   0.00   0.17 
 53- 77 0.120 0.200 0.440 0.080 0.200   0.27   1.40   7.10   0.00   0.00   0.17 
 77-100 0.120 0.200 0.440 0.080 0.200   0.27   1.40   7.10   0.00   0.00   0.17 
                                                                                
TOT-100  13.2  21.6  42.1   8.4  21.6  <--cm   -  kg/ha-->    0.0    0.0  39475 
SOIL ALBEDO    : 0.09      EVAPORATION LIMIT : 6.00         MIN. FACTOR  : 1.00 
RUNOFF CURVE # :76.00      DRAINAGE RATE     : 0.60         FERT. FACTOR : 1.00 
                                                                                
 Maize      CULTIVAR :CI0001-P30F35             ECOTYPE :IB0001                 
 P1     : 200.00  P2     : 0.3000  P5     : 925.00                              
 G2     : 954.00  G3     :  7.000  PHINT  : 50.000                              


*SIMULATED CROP AND SOIL STATUS AT MAIN DEVELOPMENT STAGES

 RUN NO.    31     P11/26                  

        CROP GROWTH     BIOMASS         LEAF   CROP N     STRESS      STRESS                                           
   DATE  AGE STAGE        kg/ha    LAI   NUM  kg/ha  %   H2O  Nitr Phos1 Phos2  RSTG                                   
 ------  --- ----------   -----  -----  ----  ---  ---  ----  ----  ----  ----  ----                                   
 26 NOV    0 Start Sim        0   0.00   0.0    0  0.0  0.00  0.00  0.00  0.00     7
 26 DEC    0 Sowing           0   0.00   0.0    0  0.0  0.00  0.00  0.00  0.00     8
 27 DEC    1 Germinate        0   0.00   0.0    0  0.0  0.00  0.00  0.00  0.00     9
 31 DEC    5 Emergence       25   0.00   2.1    1  4.4  0.00  0.01  0.00  0.00     1
 10 JAN   15 End Juveni      94   0.20   6.9    3  3.2  0.00  0.00  0.00  0.00     2
 14 JAN   19 Floral Ini     225   0.43   8.6    8  3.7  0.00  0.00  0.00  0.00     3
 12 FEB   48 75% Silkin    1881   0.85  18.1   25  1.3  0.63  0.21  0.00  0.00     4
 20 FEB   56 Beg Gr Fil    2047   0.63  18.1   26  1.3  0.82  0.37  0.00  0.00     5
 26 MAR   90 End Gr Fil    3111   0.50  18.1   38  1.2  0.20  0.05  0.00  0.00     6
 29 MAR   93 Maturity      3111   0.50  18.1   38  1.2  0.00  0.00  0.00  0.00    10
 29 MAR   93 Harvest       3111   0.50  18.1   38  1.2  0.00  0.00  0.00  0.00    10


*MAIN GROWTH AND DEVELOPMENT VARIABLES

@     VARIABLE                                         SIMULATED     MEASURED
      --------                                         ---------     --------
      Anthesis day (dap)                                      48          -99
      Physiological maturity day (dap)                        93          -99
      Yield at harvest maturity (kg [dm]/ha)                1004          -99
      Number at maturity (no/m2)                             581          -99
      Unit wt at maturity (g [dm]/unit)                   0.1729          -99
      Number at maturity (no/unit)                         101.1          -99
      Tops weight at maturity (kg [dm]/ha)                  3111          -99
      By-product produced (stalk) at maturity (kg[dm]/ha    2132          -99
      Leaf area index, maximum                              1.08          -99
      Harvest index at maturity                            0.323          -99
      Grain N at maturity (kg/ha)                             17          -99
      Tops N at maturity (kg/ha)                              38          -99
      Stem N at maturity (kg/ha)                              19          -99
      Grain N at maturity (%)                                1.7          -99
      Tops weight at anthesis (kg [dm]/ha)                  1854          -99
      Tops N at anthesis (kg/ha)                              25          -99
      Leaf number per stem at maturity                     18.09          -99
      Emergence day (dap)                                      5          -99


*ENVIRONMENTAL AND STRESS FACTORS

 |-----Development Phase------|--------------------------------------Environment--------------------------------------|-----------------Stress-----------------|
                              |---------------Average--------------|-----Cumulative-----|--------Count of days--------|          (0=Min, 1=Max Stress)         |
                         Time  Temp  Temp  Temp Solar Photop                Evapo    Pot TMIN TMIN TMAX TMAX TMAX RAIN|----Water----|---Nitrogen--|-Phosphorus-|
                         Span   Max   Min  Mean   Rad  [day]    CO2   Rain  Trans     ET   <    <    >    >    >    >   Photo         Photo         Photo
                         days    邂    邂    邂 MJ/m2     hr    ppm     mm     mm     mm  0邂  2邂 30邂 32邂 34邂  0mm  synth Growth  synth Growth  synth Growth
----------------------------------------------------------------------------------------------------------------------------------------------------------------
 Emergence-End Juvenile    10  33.6  22.3  28.0  20.4   0.00  388.5  109.8   27.7   59.9    0    0   10   10    3    4  0.000  0.000  0.002  0.005  0.000  0.000
 End Juvenil-Floral Init    4  34.5  23.0  28.8  20.8   0.00  388.5    0.0   10.2   24.2    0    0    4    4    4    0  0.000  0.000  0.002  0.005  0.000  0.000
 Floral Init-End Lf Grow   29  34.4  22.4  28.4  19.9   0.00  388.8    1.7   43.9  160.9    0    0   27   24   19    2  0.447  0.597  0.079  0.197  0.000  0.000
 End Lf Grth-Beg Grn Fil    8  35.2  23.6  29.4  20.2   0.00  388.9    1.6    7.5   46.4    0    0    8    8    5    2  0.732  0.822  0.153  0.382  0.000  0.000
 Grain Filling Phase       34  34.3  22.9  28.6  19.6   6.31  389.1  358.4  106.0  191.9    0    0   33   29   22   11  0.150  0.228  0.024  0.059  0.000  0.000


 Planting to Harvest       93  34.3  22.7  28.5  19.9   2.75  388.9  535.9  228.8  529.9    0    0   90   82   55   21  0.257  0.340  0.047  0.117  0.000  0.000
----------------------------------------------------------------------------------------------------------------------------------------------------------------


*Resource Productivity
 Growing season length:  93 days 

 Precipitation during growing season       535.9 mm[rain]
   Dry Matter Productivity                  0.58 kg[DM]/m3[rain]          =    5.8 kg[DM]/ha per mm[rain]
   Yield Productivity                       0.19 kg[grain yield]/m3[rain] =    1.9 kg[yield]/ha per mm[rain]

 Evapotranspiration during growing season  228.8 mm[ET]
   Dry Matter Productivity                  1.36 kg[DM]/m3[ET]            =   13.6 kg[DM]/ha per mm[ET]
   Yield Productivity                       0.44 kg[grain yield]/m3[ET]   =    4.4 kg[yield]/ha per mm[ET]

 Transpiration during growing season       103.3 mm[EP]
   Dry Matter Productivity                  3.01 kg[DM]/m3[EP]            =   30.1 kg[DM]/ha per mm[EP]
   Yield Productivity                       0.97 kg[grain yield]/m3[EP]   =    9.7 kg[yield]/ha per mm[EP]

 N applied during growing season            162. kg[N applied]/ha
   Dry Matter Productivity                  19.2 kg[DM]/kg[N applied]
   Yield Productivity                        6.2 kg[yield]/kg[N applied]

 N uptake during growing season               49 kg[N uptake]/ha
   Dry Matter Productivity                  63.5 kg[DM]/kg[N uptake]
   Yield Productivity                       20.5 kg[yield]/kg[N uptake]

--------------------------------------------------------------------------------------------------------------

                     Maize YIELD :     1004 kg/ha    [Dry weight] 

**************************************************************************************************************

*DSSAT Cropping System Model Ver. 4.6.1.000 -release      OCT 24, 2017; 11:01:45
                                                                                
*RUN  32        : P12/31                    MZCER046 ANES2009   32              
 MODEL          : MZCER046 - Maize                                              
 EXPERIMENT     : ANES2009 MZ  MZ Analisis a침os de bajo rendimiento Espinal    
 DATA PATH      : C:\DSSAT46\maize\                                             
 TREATMENT 32   : P12/31                    MZCER046                            
                                                                                
                                                                                
 CROP           : Maize            CULTIVAR : P30F35           ECOTYPE :IB0001  
 STARTING DATE  : DEC  1 2009                                                   
 PLANTING DATE  : DEC 31 2009        PLANTS/m2 :  6.2     ROW SPACING :  80.cm  
 WEATHER        : CNAT   2009                                                   
 SOIL           : CCESPI2017     TEXTURE : SL    -   Suelo Espinal Calibraci    
 SOIL INITIAL C : DEPTH:100cm EXTR. H2O: 83.6mm  NO3:  0.0kg/ha  NH4:  0.0kg/ha 
 WATER BALANCE  : RAINFED                                                       
 IRRIGATION     : NOT IRRIGATED                                                 
 NITROGEN BAL.  : SOIL-N & N-UPTAKE SIMULATION; NO N-FIXATION                   
 N-FERTILIZER   :      162 kg/ha IN     6 APPLICATIONS                          
 RESIDUE/MANURE : INITIAL :     0 kg/ha ;       0 kg/ha IN     0 APPLICATIONS   
 ENVIRONM. OPT. : DAYL=    0.00  SRAD=    0.00  TMAX=    0.00  TMIN=    0.00    
                  RAIN=    0.00  CO2 =    0.00  DEW =    0.00  WIND=    0.00    
 SIMULATION OPT : WATER   :Y  NITROGEN:Y  N-FIX:N  PHOSPH :N  PESTS  :N         
                  PHOTO   :C  ET      :R  INFIL:S  HYDROL :R  SOM    :G         
                  CO2 388ppm  NSWIT   :1  EVAP :S  SOIL   :2  STEMP  :D         
 MANAGEMENT OPT : PLANTING:R  IRRIG   :N  FERT :D  RESIDUE:R  HARVEST:M         
                  WEATHER :M  TILLAGE :N                                        
                                                                                
*SUMMARY OF SOIL AND GENETIC INPUT PARAMETERS                                   
                                                                                
   SOIL LOWER UPPER   SAT  EXTR  INIT   ROOT   BULK     pH    NO3    NH4    ORG 
  DEPTH LIMIT LIMIT    SW    SW    SW   DIST   DENS                          C  
   cm   cm3/cm3    cm3/cm3    cm3/cm3         g/cm3         ugN/g  ugN/g     %  
------------------------------------------------------------------------------- 
  0-  5 0.160 0.252 0.376 0.092 0.252   1.00   1.69   6.60   0.00   0.00   0.45 
  5- 15 0.160 0.252 0.376 0.092 0.252   1.00   1.69   6.60   0.00   0.00   0.45 
 15- 30 0.160 0.252 0.376 0.092 0.252   1.00   1.69   6.60   0.00   0.00   0.45 
 30- 53 0.120 0.200 0.440 0.080 0.200   0.27   1.40   7.10   0.00   0.00   0.17 
 53- 77 0.120 0.200 0.440 0.080 0.200   0.27   1.40   7.10   0.00   0.00   0.17 
 77-100 0.120 0.200 0.440 0.080 0.200   0.27   1.40   7.10   0.00   0.00   0.17 
                                                                                
TOT-100  13.2  21.6  42.1   8.4  21.6  <--cm   -  kg/ha-->    0.0    0.0  39475 
SOIL ALBEDO    : 0.09      EVAPORATION LIMIT : 6.00         MIN. FACTOR  : 1.00 
RUNOFF CURVE # :76.00      DRAINAGE RATE     : 0.60         FERT. FACTOR : 1.00 
                                                                                
 Maize      CULTIVAR :CI0001-P30F35             ECOTYPE :IB0001                 
 P1     : 200.00  P2     : 0.3000  P5     : 925.00                              
 G2     : 954.00  G3     :  7.000  PHINT  : 50.000                              


*SIMULATED CROP AND SOIL STATUS AT MAIN DEVELOPMENT STAGES

 RUN NO.    32     P12/31                  

        CROP GROWTH     BIOMASS         LEAF   CROP N     STRESS      STRESS                                           
   DATE  AGE STAGE        kg/ha    LAI   NUM  kg/ha  %   H2O  Nitr Phos1 Phos2  RSTG                                   
 ------  --- ----------   -----  -----  ----  ---  ---  ----  ----  ----  ----  ----                                   
  1 DEC    0 Start Sim        0   0.00   0.0    0  0.0  0.00  0.00  0.00  0.00     7
 31 DEC    0 Sowing           0   0.00   0.0    0  0.0  0.00  0.00  0.00  0.00     8
  1 JAN    1 Germinate        0   0.00   0.0    0  0.0  0.00  0.00  0.00  0.00     9
  5 JAN    5 Emergence       25   0.00   2.1    1  4.4  0.00  0.01  0.00  0.00     1
 14 JAN   14 End Juveni      78   0.17   6.6    2  2.7  0.00  0.02  0.00  0.00     2
 18 JAN   18 Floral Ini     153   0.30   8.3    3  1.9  0.00  0.33  0.00  0.00     3
 15 FEB   46 75% Silkin    1126   0.42  17.3    7  0.7  0.39  0.76  0.00  0.00     4
 23 FEB   54 Beg Gr Fil    1278   0.30  17.3    9  0.7  0.74  0.83  0.00  0.00     5
 30 MAR   89 End Gr Fil    1478   0.26  17.3   21  1.4  0.05  0.07  0.00  0.00     6
  1 APR   91 Maturity      1478   0.26  17.3   21  1.4  0.00  0.00  0.00  0.00    10
  1 APR   91 Harvest       1478   0.26  17.3   21  1.4  0.00  0.00  0.00  0.00    10


*MAIN GROWTH AND DEVELOPMENT VARIABLES

@     VARIABLE                                         SIMULATED     MEASURED
      --------                                         ---------     --------
      Anthesis day (dap)                                      46          -99
      Physiological maturity day (dap)                        91          -99
      Yield at harvest maturity (kg [dm]/ha)                 200          -99
      Number at maturity (no/m2)                              92          -99
      Unit wt at maturity (g [dm]/unit)                   0.2169          -99
      Number at maturity (no/unit)                          16.8          -99
      Tops weight at maturity (kg [dm]/ha)                  1478          -99
      By-product produced (stalk) at maturity (kg[dm]/ha    1295          -99
      Leaf area index, maximum                              0.56          -99
      Harvest index at maturity                            0.135          -99
      Grain N at maturity (kg/ha)                              3          -99
      Tops N at maturity (kg/ha)                              21          -99
      Stem N at maturity (kg/ha)                              17          -99
      Grain N at maturity (%)                                1.5          -99
      Tops weight at anthesis (kg [dm]/ha)                  1100          -99
      Tops N at anthesis (kg/ha)                               7          -99
      Leaf number per stem at maturity                     17.34          -99
      Emergence day (dap)                                      5          -99


*ENVIRONMENTAL AND STRESS FACTORS

 |-----Development Phase------|--------------------------------------Environment--------------------------------------|-----------------Stress-----------------|
                              |---------------Average--------------|-----Cumulative-----|--------Count of days--------|          (0=Min, 1=Max Stress)         |
                         Time  Temp  Temp  Temp Solar Photop                Evapo    Pot TMIN TMIN TMAX TMAX TMAX RAIN|----Water----|---Nitrogen--|-Phosphorus-|
                         Span   Max   Min  Mean   Rad  [day]    CO2   Rain  Trans     ET   <    <    >    >    >    >   Photo         Photo         Photo
                         days    邂    邂    邂 MJ/m2     hr    ppm     mm     mm     mm  0邂  2邂 30邂 32邂 34邂  0mm  synth Growth  synth Growth  synth Growth
----------------------------------------------------------------------------------------------------------------------------------------------------------------
 Emergence-End Juvenile     9  34.1  23.0  28.5  20.4   0.00  388.5  106.7   31.4   54.7    0    0    9    9    6    3  0.000  0.000  0.003  0.008  0.000  0.000
 End Juvenil-Floral Init    4  35.1  21.6  28.4  22.0   0.00  388.7    0.0    5.3   25.8    0    0    4    4    4    0  0.000  0.000  0.095  0.237  0.000  0.000
 Floral Init-End Lf Grow   28  34.3  22.6  28.4  19.6   0.00  388.8    3.3   37.5  158.0    0    0   26   23   17    4  0.249  0.365  0.502  0.751  0.000  0.000
 End Lf Grth-Beg Grn Fil    8  35.7  24.2  29.9  20.9   0.00  389.0    0.2    6.4   50.4    0    0    8    8    6    1  0.635  0.758  0.600  0.833  0.000  0.000
 Grain Filling Phase       35  34.3  22.8  28.5  19.6   7.71  389.1  495.5  126.4  202.1    0    0   34   30   22   13  0.041  0.064  0.064  0.091  0.000  0.000


 Planting to Harvest       91  34.3  22.7  28.5  19.9   3.29  388.9  608.8  219.7  530.7    0    0   88   79   56   22  0.148  0.204  0.236  0.351  0.000  0.000
----------------------------------------------------------------------------------------------------------------------------------------------------------------


*Resource Productivity
 Growing season length:  91 days 

 Precipitation during growing season       608.8 mm[rain]
   Dry Matter Productivity                  0.24 kg[DM]/m3[rain]          =    2.4 kg[DM]/ha per mm[rain]
   Yield Productivity                       0.03 kg[grain yield]/m3[rain] =    0.3 kg[yield]/ha per mm[rain]

 Evapotranspiration during growing season  219.7 mm[ET]
   Dry Matter Productivity                  0.67 kg[DM]/m3[ET]            =    6.7 kg[DM]/ha per mm[ET]
   Yield Productivity                       0.09 kg[grain yield]/m3[ET]   =    0.9 kg[yield]/ha per mm[ET]

 Transpiration during growing season        73.3 mm[EP]
   Dry Matter Productivity                  2.02 kg[DM]/m3[EP]            =   20.2 kg[DM]/ha per mm[EP]
   Yield Productivity                       0.27 kg[grain yield]/m3[EP]   =    2.7 kg[yield]/ha per mm[EP]

 N applied during growing season            162. kg[N applied]/ha
   Dry Matter Productivity                   9.1 kg[DM]/kg[N applied]
   Yield Productivity                        1.2 kg[yield]/kg[N applied]

 N uptake during growing season               23 kg[N uptake]/ha
   Dry Matter Productivity                  64.3 kg[DM]/kg[N uptake]
   Yield Productivity                        8.7 kg[yield]/kg[N uptake]

--------------------------------------------------------------------------------------------------------------

                     Maize YIELD :      200 kg/ha    [Dry weight] 

**************************************************************************************************************
