*SIMULATION OVERVIEW FILE

*DSSAT Cropping System Model Ver. 4.6.1.000 -release      OCT 24, 2017; 10:46:44
                                                                                
*RUN   1        : P04/02                    MZCER046 ANBU2002    1              
 MODEL          : MZCER046 - Maize                                              
 EXPERIMENT     : ANBU2002 MZ  Analisis a침os de bajo rendimiento Buga          
 DATA PATH      : C:\DSSAT46\maize\                                             
 TREATMENT  1   : P04/02                    MZCER046                            
                                                                                
                                                                                
 CROP           : Maize            CULTIVAR : FNC3056          ECOTYPE :IB0001  
 STARTING DATE  : MAR  3 2002                                                   
 PLANTING DATE  : APR  2 2002        PLANTS/m2 :  6.2     ROW SPACING :  80.cm  
 WEATHER        : CUNI   2002                                                   
 SOIL           : CCBUGA2017     TEXTURE : CL    -   Suelo Buga MADR Fase I     
 SOIL INITIAL C : DEPTH: 90cm EXTR. H2O: 83.9mm  NO3:  0.0kg/ha  NH4:  0.0kg/ha 
 WATER BALANCE  : RAINFED                                                       
 IRRIGATION     : NOT IRRIGATED                                                 
 NITROGEN BAL.  : SOIL-N & N-UPTAKE SIMULATION; NO N-FIXATION                   
 N-FERTILIZER   :      161 kg/ha IN     5 APPLICATIONS                          
 RESIDUE/MANURE : INITIAL :     0 kg/ha ;       0 kg/ha IN     0 APPLICATIONS   
 ENVIRONM. OPT. : DAYL=    0.00  SRAD=    0.00  TMAX=    0.00  TMIN=    0.00    
                  RAIN=    0.00  CO2 =    0.00  DEW =    0.00  WIND=    0.00    
 SIMULATION OPT : WATER   :Y  NITROGEN:Y  N-FIX:N  PHOSPH :N  PESTS  :N         
                  PHOTO   :C  ET      :R  INFIL:S  HYDROL :R  SOM    :G         
                  CO2 372ppm  NSWIT   :1  EVAP :S  SOIL   :2  STEMP  :D         
 MANAGEMENT OPT : PLANTING:R  IRRIG   :N  FERT :D  RESIDUE:R  HARVEST:M         
                  WEATHER :M  TILLAGE :N                                        
                                                                                
*SUMMARY OF SOIL AND GENETIC INPUT PARAMETERS                                   
                                                                                
   SOIL LOWER UPPER   SAT  EXTR  INIT   ROOT   BULK     pH    NO3    NH4    ORG 
  DEPTH LIMIT LIMIT    SW    SW    SW   DIST   DENS                          C  
   cm   cm3/cm3    cm3/cm3    cm3/cm3         g/cm3         ugN/g  ugN/g     %  
------------------------------------------------------------------------------- 
  0-  5 0.215 0.331 0.341 0.116 0.331   1.00   1.68   6.70   0.00   0.00   0.75 
  5- 15 0.215 0.331 0.341 0.116 0.331   1.00   1.68   6.70   0.00   0.00   0.75 
 15- 25 0.215 0.331 0.341 0.116 0.331   1.00   1.68   6.70   0.00   0.00   0.75 
 25- 35 0.181 0.291 0.364 0.110 0.291   0.50   1.61   7.20   0.00   0.00   0.53 
 35- 45 0.181 0.291 0.364 0.110 0.291   0.50   1.61   7.20   0.00   0.00   0.53 
 45- 67 0.096 0.169 0.404 0.073 0.169   0.27   1.51   7.00   0.00   0.00   0.05 
 67- 90 0.096 0.169 0.404 0.073 0.169   0.27   1.51   7.00   0.00   0.00   0.05 
                                                                                
TOT- 90  13.3  21.7  34.0   8.4  21.7  <--cm   -  kg/ha-->    0.0    0.0  51964 
SOIL ALBEDO    : 0.09      EVAPORATION LIMIT : 6.00         MIN. FACTOR  : 1.00 
RUNOFF CURVE # :76.00      DRAINAGE RATE     : 0.60         FERT. FACTOR : 1.00 
                                                                                
 Maize      CULTIVAR :CI0003-FNC3056            ECOTYPE :IB0001                 
 P1     : 233.00  P2     : 0.5000  P5     : 976.00                              
 G2     : 956.00  G3     :  7.500  PHINT  : 45.600                              


*SIMULATED CROP AND SOIL STATUS AT MAIN DEVELOPMENT STAGES

 RUN NO.     1     P04/02                  

        CROP GROWTH     BIOMASS         LEAF   CROP N     STRESS      STRESS                                           
   DATE  AGE STAGE        kg/ha    LAI   NUM  kg/ha  %   H2O  Nitr Phos1 Phos2  RSTG                                   
 ------  --- ----------   -----  -----  ----  ---  ---  ----  ----  ----  ----  ----                                   
  3 MAR    0 Start Sim        0   0.00   0.0    0  0.0  0.00  0.00  0.00  0.00     7
  2 APR    0 Sowing           0   0.00   0.0    0  0.0  0.00  0.00  0.00  0.00     8
  3 APR    1 Germinate        0   0.00   0.0    0  0.0  0.00  0.00  0.00  0.00     9
  8 APR    6 Emergence       25   0.00   2.1    1  4.4  0.00  0.01  0.00  0.00     1
 21 APR   19 End Juveni     126   0.26   7.6    4  3.4  0.00  0.00  0.00  0.00     2
 28 APR   26 Floral Ini     322   0.58  10.2   12  3.6  0.00  0.00  0.00  0.00     3
  5 JUN   64 75% Silkin    5355   2.55  21.3  114  2.1  0.14  0.10  0.00  0.00     4
 15 JUN   74 Beg Gr Fil    7477   2.55  21.3  114  1.5  0.00  0.00  0.00  0.00     5
 30 JUL  119 End Gr Fil    9674   0.48  21.3  121  1.2  0.81  0.00  0.00  0.00     6
  3 AUG  123 Maturity      9674   0.48  21.3  121  1.2  0.95  0.00  0.00  0.00    10
  3 AUG  123 Harvest       9674   0.48  21.3  121  1.2  0.00  0.00  0.00  0.00    10


*MAIN GROWTH AND DEVELOPMENT VARIABLES

@     VARIABLE                                         SIMULATED     MEASURED
      --------                                         ---------     --------
      Anthesis day (dap)                                      64          -99
      Physiological maturity day (dap)                       123          -99
      Yield at harvest maturity (kg [dm]/ha)                3602          -99
      Number at maturity (no/m2)                            2642          -99
      Unit wt at maturity (g [dm]/unit)                   0.1363          -99
      Number at maturity (no/unit)                         426.2          -99
      Tops weight at maturity (kg [dm]/ha)                  9674          -99
      By-product produced (stalk) at maturity (kg[dm]/ha    6128          -99
      Leaf area index, maximum                              2.91          -99
      Harvest index at maturity                            0.372          -99
      Grain N at maturity (kg/ha)                             66          -99
      Tops N at maturity (kg/ha)                             121          -99
      Stem N at maturity (kg/ha)                              55          -99
      Grain N at maturity (%)                                1.8          -99
      Tops weight at anthesis (kg [dm]/ha)                  5318          -99
      Tops N at anthesis (kg/ha)                             114          -99
      Leaf number per stem at maturity                     21.34          -99
      Emergence day (dap)                                      6          -99


*ENVIRONMENTAL AND STRESS FACTORS

 |-----Development Phase------|--------------------------------------Environment--------------------------------------|-----------------Stress-----------------|
                              |---------------Average--------------|-----Cumulative-----|--------Count of days--------|          (0=Min, 1=Max Stress)         |
                         Time  Temp  Temp  Temp Solar Photop                Evapo    Pot TMIN TMIN TMAX TMAX TMAX RAIN|----Water----|---Nitrogen--|-Phosphorus-|
                         Span   Max   Min  Mean   Rad  [day]    CO2   Rain  Trans     ET   <    <    >    >    >    >   Photo         Photo         Photo
                         days    邂    邂    邂 MJ/m2     hr    ppm     mm     mm     mm  0邂  2邂 30邂 32邂 34邂  0mm  synth Growth  synth Growth  synth Growth
----------------------------------------------------------------------------------------------------------------------------------------------------------------
 Emergence-End Juvenile    13  30.4  19.3  24.9  14.9  22.01  372.4   43.0   29.8   53.7    0    0    8    4    0    5  0.000  0.000  0.002  0.005  0.000  0.000
 End Juvenil-Floral Init    7  28.9  19.9  24.4  12.6  24.00  372.5   65.0   21.2   23.5    0    0    3    0    0    6  0.000  0.000  0.000  0.001  0.000  0.000
 Floral Init-End Lf Grow   38  29.2  19.4  24.3  14.6  24.00  372.6   53.4  117.1  135.3    0    0   15    2    0   12  0.077  0.122  0.039  0.096  0.000  0.000
 End Lf Grth-Beg Grn Fil   10  30.7  18.7  24.7  16.4  24.00  372.7   64.8   37.2   39.4    0    0    7    3    0    8  0.071  0.081  0.000  0.000  0.000  0.000
 Grain Filling Phase       45  30.4  18.9  24.7  17.6  24.00  373.0   22.2   65.5  197.1    0    0   29    9    1    8  0.731  0.784  0.000  0.000  0.000  0.000


 Planting to Harvest      123  29.9  19.1  24.5  15.9  23.44  372.7  310.0  299.1  494.6    0    0   66   18    1   44  0.327  0.362  0.012  0.030  0.000  0.000
----------------------------------------------------------------------------------------------------------------------------------------------------------------


*Resource Productivity
 Growing season length: 123 days 

 Precipitation during growing season       310.0 mm[rain]
   Dry Matter Productivity                  3.12 kg[DM]/m3[rain]          =   31.2 kg[DM]/ha per mm[rain]
   Yield Productivity                       1.16 kg[grain yield]/m3[rain] =   11.6 kg[yield]/ha per mm[rain]

 Evapotranspiration during growing season  299.1 mm[ET]
   Dry Matter Productivity                  3.23 kg[DM]/m3[ET]            =   32.3 kg[DM]/ha per mm[ET]
   Yield Productivity                       1.20 kg[grain yield]/m3[ET]   =   12.0 kg[yield]/ha per mm[ET]

 Transpiration during growing season       155.9 mm[EP]
   Dry Matter Productivity                  6.21 kg[DM]/m3[EP]            =   62.1 kg[DM]/ha per mm[EP]
   Yield Productivity                       2.31 kg[grain yield]/m3[EP]   =   23.1 kg[yield]/ha per mm[EP]

 N applied during growing season            161. kg[N applied]/ha
   Dry Matter Productivity                  60.1 kg[DM]/kg[N applied]
   Yield Productivity                       22.4 kg[yield]/kg[N applied]

 N uptake during growing season              131 kg[N uptake]/ha
   Dry Matter Productivity                  73.8 kg[DM]/kg[N uptake]
   Yield Productivity                       27.5 kg[yield]/kg[N uptake]

--------------------------------------------------------------------------------------------------------------

                     Maize YIELD :     3602 kg/ha    [Dry weight] 

**************************************************************************************************************

*DSSAT Cropping System Model Ver. 4.6.1.000 -release      OCT 24, 2017; 10:46:45
                                                                                
*RUN   2        : P04/07                    MZCER046 ANBU2002    2              
 MODEL          : MZCER046 - Maize                                              
 EXPERIMENT     : ANBU2002 MZ  Analisis a침os de bajo rendimiento Buga          
 DATA PATH      : C:\DSSAT46\maize\                                             
 TREATMENT  2   : P04/07                    MZCER046                            
                                                                                
                                                                                
 CROP           : Maize            CULTIVAR : FNC3056          ECOTYPE :IB0001  
 STARTING DATE  : MAR  8 2002                                                   
 PLANTING DATE  : APR  7 2002        PLANTS/m2 :  6.2     ROW SPACING :  80.cm  
 WEATHER        : CUNI   2002                                                   
 SOIL           : CCBUGA2017     TEXTURE : CL    -   Suelo Buga MADR Fase I     
 SOIL INITIAL C : DEPTH: 90cm EXTR. H2O: 83.9mm  NO3:  0.0kg/ha  NH4:  0.0kg/ha 
 WATER BALANCE  : RAINFED                                                       
 IRRIGATION     : NOT IRRIGATED                                                 
 NITROGEN BAL.  : SOIL-N & N-UPTAKE SIMULATION; NO N-FIXATION                   
 N-FERTILIZER   :      161 kg/ha IN     5 APPLICATIONS                          
 RESIDUE/MANURE : INITIAL :     0 kg/ha ;       0 kg/ha IN     0 APPLICATIONS   
 ENVIRONM. OPT. : DAYL=    0.00  SRAD=    0.00  TMAX=    0.00  TMIN=    0.00    
                  RAIN=    0.00  CO2 =    0.00  DEW =    0.00  WIND=    0.00    
 SIMULATION OPT : WATER   :Y  NITROGEN:Y  N-FIX:N  PHOSPH :N  PESTS  :N         
                  PHOTO   :C  ET      :R  INFIL:S  HYDROL :R  SOM    :G         
                  CO2 372ppm  NSWIT   :1  EVAP :S  SOIL   :2  STEMP  :D         
 MANAGEMENT OPT : PLANTING:R  IRRIG   :N  FERT :D  RESIDUE:R  HARVEST:M         
                  WEATHER :M  TILLAGE :N                                        
                                                                                
*SUMMARY OF SOIL AND GENETIC INPUT PARAMETERS                                   
                                                                                
   SOIL LOWER UPPER   SAT  EXTR  INIT   ROOT   BULK     pH    NO3    NH4    ORG 
  DEPTH LIMIT LIMIT    SW    SW    SW   DIST   DENS                          C  
   cm   cm3/cm3    cm3/cm3    cm3/cm3         g/cm3         ugN/g  ugN/g     %  
------------------------------------------------------------------------------- 
  0-  5 0.215 0.331 0.341 0.116 0.331   1.00   1.68   6.70   0.00   0.00   0.75 
  5- 15 0.215 0.331 0.341 0.116 0.331   1.00   1.68   6.70   0.00   0.00   0.75 
 15- 25 0.215 0.331 0.341 0.116 0.331   1.00   1.68   6.70   0.00   0.00   0.75 
 25- 35 0.181 0.291 0.364 0.110 0.291   0.50   1.61   7.20   0.00   0.00   0.53 
 35- 45 0.181 0.291 0.364 0.110 0.291   0.50   1.61   7.20   0.00   0.00   0.53 
 45- 67 0.096 0.169 0.404 0.073 0.169   0.27   1.51   7.00   0.00   0.00   0.05 
 67- 90 0.096 0.169 0.404 0.073 0.169   0.27   1.51   7.00   0.00   0.00   0.05 
                                                                                
TOT- 90  13.3  21.7  34.0   8.4  21.7  <--cm   -  kg/ha-->    0.0    0.0  51964 
SOIL ALBEDO    : 0.09      EVAPORATION LIMIT : 6.00         MIN. FACTOR  : 1.00 
RUNOFF CURVE # :76.00      DRAINAGE RATE     : 0.60         FERT. FACTOR : 1.00 
                                                                                
 Maize      CULTIVAR :CI0003-FNC3056            ECOTYPE :IB0001                 
 P1     : 233.00  P2     : 0.5000  P5     : 976.00                              
 G2     : 956.00  G3     :  7.500  PHINT  : 45.600                              


*SIMULATED CROP AND SOIL STATUS AT MAIN DEVELOPMENT STAGES

 RUN NO.     2     P04/07                  

        CROP GROWTH     BIOMASS         LEAF   CROP N     STRESS      STRESS                                           
   DATE  AGE STAGE        kg/ha    LAI   NUM  kg/ha  %   H2O  Nitr Phos1 Phos2  RSTG                                   
 ------  --- ----------   -----  -----  ----  ---  ---  ----  ----  ----  ----  ----                                   
  8 MAR    0 Start Sim        0   0.00   0.0    0  0.0  0.00  0.00  0.00  0.00     7
  7 APR    0 Sowing           0   0.00   0.0    0  0.0  0.00  0.00  0.00  0.00     8
  8 APR    1 Germinate        0   0.00   0.0    0  0.0  0.00  0.00  0.00  0.00     9
 13 APR    6 Emergence       25   0.00   2.1    1  4.4  0.00  0.01  0.00  0.00     1
 26 APR   19 End Juveni      88   0.19   7.6    3  3.7  0.00  0.00  0.00  0.00     2
  4 MAY   27 Floral Ini     344   0.61  10.5   12  3.6  0.00  0.00  0.00  0.00     3
 12 JUN   66 75% Silkin    5623   2.77  22.0  113  2.0  0.11  0.11  0.00  0.00     4
 22 JUN   76 Beg Gr Fil    7529   2.51  22.0  114  1.5  0.26  0.00  0.00  0.00     5
  7 AUG  122 End Gr Fil    8720   0.36  22.0  114  1.3  0.89  0.00  0.00  0.00     6
  9 AUG  124 Maturity      8720   0.36  22.0  114  1.3  0.94  0.00  0.00  0.00    10
  9 AUG  124 Harvest       8720   0.36  22.0  114  1.3  0.00  0.00  0.00  0.00    10


*MAIN GROWTH AND DEVELOPMENT VARIABLES

@     VARIABLE                                         SIMULATED     MEASURED
      --------                                         ---------     --------
      Anthesis day (dap)                                      66          -99
      Physiological maturity day (dap)                       124          -99
      Yield at harvest maturity (kg [dm]/ha)                2542          -99
      Number at maturity (no/m2)                            2754          -99
      Unit wt at maturity (g [dm]/unit)                   0.0923          -99
      Number at maturity (no/unit)                         444.1          -99
      Tops weight at maturity (kg [dm]/ha)                  8720          -99
      By-product produced (stalk) at maturity (kg[dm]/ha    6234          -99
      Leaf area index, maximum                              2.77          -99
      Harvest index at maturity                            0.292          -99
      Grain N at maturity (kg/ha)                             48          -99
      Tops N at maturity (kg/ha)                             114          -99
      Stem N at maturity (kg/ha)                              67          -99
      Grain N at maturity (%)                                1.9          -99
      Tops weight at anthesis (kg [dm]/ha)                  5359          -99
      Tops N at anthesis (kg/ha)                             110          -99
      Leaf number per stem at maturity                     21.99          -99
      Emergence day (dap)                                      6          -99


*ENVIRONMENTAL AND STRESS FACTORS

 |-----Development Phase------|--------------------------------------Environment--------------------------------------|-----------------Stress-----------------|
                              |---------------Average--------------|-----Cumulative-----|--------Count of days--------|          (0=Min, 1=Max Stress)         |
                         Time  Temp  Temp  Temp Solar Photop                Evapo    Pot TMIN TMIN TMAX TMAX TMAX RAIN|----Water----|---Nitrogen--|-Phosphorus-|
                         Span   Max   Min  Mean   Rad  [day]    CO2   Rain  Trans     ET   <    <    >    >    >    >   Photo         Photo         Photo
                         days    邂    邂    邂 MJ/m2     hr    ppm     mm     mm     mm  0邂  2邂 30邂 32邂 34邂  0mm  synth Growth  synth Growth  synth Growth
----------------------------------------------------------------------------------------------------------------------------------------------------------------
 Emergence-End Juvenile    13  29.9  19.7  24.8  14.6  23.76  372.5   58.0   23.9   52.8    0    0    7    2    0    7  0.000  0.000  0.002  0.005  0.000  0.000
 End Juvenil-Floral Init    8  29.1  19.5  24.3  15.2  24.00  372.5   23.0   29.0   32.7    0    0    4    0    0    4  0.000  0.000  0.000  0.001  0.000  0.000
 Floral Init-End Lf Grow   39  29.4  19.3  24.3  14.6  24.00  372.7  106.2  115.1  139.0    0    0   15    4    0   17  0.071  0.108  0.047  0.106  0.000  0.000
 End Lf Grth-Beg Grn Fil   10  30.8  19.0  24.9  18.1  24.00  372.9    5.0   38.1   43.3    0    0    8    2    0    1  0.128  0.186  0.000  0.000  0.000  0.000
 Grain Filling Phase       46  30.4  18.6  24.5  17.9  24.00  373.0   26.4   47.5  208.0    0    0   28   10    1    9  0.845  0.890  0.000  0.000  0.000  0.000


 Planting to Harvest      124  30.0  19.0  24.5  16.1  23.74  372.8  271.6  275.7  504.6    0    0   69   21    1   41  0.360  0.394  0.015  0.034  0.000  0.000
----------------------------------------------------------------------------------------------------------------------------------------------------------------


*Resource Productivity
 Growing season length: 124 days 

 Precipitation during growing season       271.6 mm[rain]
   Dry Matter Productivity                  3.21 kg[DM]/m3[rain]          =   32.1 kg[DM]/ha per mm[rain]
   Yield Productivity                       0.94 kg[grain yield]/m3[rain] =    9.4 kg[yield]/ha per mm[rain]

 Evapotranspiration during growing season  275.7 mm[ET]
   Dry Matter Productivity                  3.16 kg[DM]/m3[ET]            =   31.6 kg[DM]/ha per mm[ET]
   Yield Productivity                       0.92 kg[grain yield]/m3[ET]   =    9.2 kg[yield]/ha per mm[ET]

 Transpiration during growing season       142.8 mm[EP]
   Dry Matter Productivity                  6.11 kg[DM]/m3[EP]            =   61.1 kg[DM]/ha per mm[EP]
   Yield Productivity                       1.78 kg[grain yield]/m3[EP]   =   17.8 kg[yield]/ha per mm[EP]

 N applied during growing season            161. kg[N applied]/ha
   Dry Matter Productivity                  54.2 kg[DM]/kg[N applied]
   Yield Productivity                       15.8 kg[yield]/kg[N applied]

 N uptake during growing season              125 kg[N uptake]/ha
   Dry Matter Productivity                  69.8 kg[DM]/kg[N uptake]
   Yield Productivity                       20.3 kg[yield]/kg[N uptake]

--------------------------------------------------------------------------------------------------------------

                     Maize YIELD :     2542 kg/ha    [Dry weight] 

**************************************************************************************************************

*DSSAT Cropping System Model Ver. 4.6.1.000 -release      OCT 24, 2017; 10:46:45
                                                                                
*RUN   3        : P04/12                    MZCER046 ANBU2002    3              
 MODEL          : MZCER046 - Maize                                              
 EXPERIMENT     : ANBU2002 MZ  Analisis a침os de bajo rendimiento Buga          
 DATA PATH      : C:\DSSAT46\maize\                                             
 TREATMENT  3   : P04/12                    MZCER046                            
                                                                                
                                                                                
 CROP           : Maize            CULTIVAR : FNC3056          ECOTYPE :IB0001  
 STARTING DATE  : MAR 13 2002                                                   
 PLANTING DATE  : APR 12 2002        PLANTS/m2 :  6.2     ROW SPACING :  80.cm  
 WEATHER        : CUNI   2002                                                   
 SOIL           : CCBUGA2017     TEXTURE : CL    -   Suelo Buga MADR Fase I     
 SOIL INITIAL C : DEPTH: 90cm EXTR. H2O: 83.9mm  NO3:  0.0kg/ha  NH4:  0.0kg/ha 
 WATER BALANCE  : RAINFED                                                       
 IRRIGATION     : NOT IRRIGATED                                                 
 NITROGEN BAL.  : SOIL-N & N-UPTAKE SIMULATION; NO N-FIXATION                   
 N-FERTILIZER   :      161 kg/ha IN     5 APPLICATIONS                          
 RESIDUE/MANURE : INITIAL :     0 kg/ha ;       0 kg/ha IN     0 APPLICATIONS   
 ENVIRONM. OPT. : DAYL=    0.00  SRAD=    0.00  TMAX=    0.00  TMIN=    0.00    
                  RAIN=    0.00  CO2 =    0.00  DEW =    0.00  WIND=    0.00    
 SIMULATION OPT : WATER   :Y  NITROGEN:Y  N-FIX:N  PHOSPH :N  PESTS  :N         
                  PHOTO   :C  ET      :R  INFIL:S  HYDROL :R  SOM    :G         
                  CO2 372ppm  NSWIT   :1  EVAP :S  SOIL   :2  STEMP  :D         
 MANAGEMENT OPT : PLANTING:R  IRRIG   :N  FERT :D  RESIDUE:R  HARVEST:M         
                  WEATHER :M  TILLAGE :N                                        
                                                                                
*SUMMARY OF SOIL AND GENETIC INPUT PARAMETERS                                   
                                                                                
   SOIL LOWER UPPER   SAT  EXTR  INIT   ROOT   BULK     pH    NO3    NH4    ORG 
  DEPTH LIMIT LIMIT    SW    SW    SW   DIST   DENS                          C  
   cm   cm3/cm3    cm3/cm3    cm3/cm3         g/cm3         ugN/g  ugN/g     %  
------------------------------------------------------------------------------- 
  0-  5 0.215 0.331 0.341 0.116 0.331   1.00   1.68   6.70   0.00   0.00   0.75 
  5- 15 0.215 0.331 0.341 0.116 0.331   1.00   1.68   6.70   0.00   0.00   0.75 
 15- 25 0.215 0.331 0.341 0.116 0.331   1.00   1.68   6.70   0.00   0.00   0.75 
 25- 35 0.181 0.291 0.364 0.110 0.291   0.50   1.61   7.20   0.00   0.00   0.53 
 35- 45 0.181 0.291 0.364 0.110 0.291   0.50   1.61   7.20   0.00   0.00   0.53 
 45- 67 0.096 0.169 0.404 0.073 0.169   0.27   1.51   7.00   0.00   0.00   0.05 
 67- 90 0.096 0.169 0.404 0.073 0.169   0.27   1.51   7.00   0.00   0.00   0.05 
                                                                                
TOT- 90  13.3  21.7  34.0   8.4  21.7  <--cm   -  kg/ha-->    0.0    0.0  51964 
SOIL ALBEDO    : 0.09      EVAPORATION LIMIT : 6.00         MIN. FACTOR  : 1.00 
RUNOFF CURVE # :76.00      DRAINAGE RATE     : 0.60         FERT. FACTOR : 1.00 
                                                                                
 Maize      CULTIVAR :CI0003-FNC3056            ECOTYPE :IB0001                 
 P1     : 233.00  P2     : 0.5000  P5     : 976.00                              
 G2     : 956.00  G3     :  7.500  PHINT  : 45.600                              


*SIMULATED CROP AND SOIL STATUS AT MAIN DEVELOPMENT STAGES

 RUN NO.     3     P04/12                  

        CROP GROWTH     BIOMASS         LEAF   CROP N     STRESS      STRESS                                           
   DATE  AGE STAGE        kg/ha    LAI   NUM  kg/ha  %   H2O  Nitr Phos1 Phos2  RSTG                                   
 ------  --- ----------   -----  -----  ----  ---  ---  ----  ----  ----  ----  ----                                   
 13 MAR    0 Start Sim        0   0.00   0.0    0  0.0  0.00  0.00  0.00  0.00     7
 12 APR    0 Sowing           0   0.00   0.0    0  0.0  0.00  0.00  0.00  0.00     8
 13 APR    1 Germinate        0   0.00   0.0    0  0.0  0.00  0.00  0.00  0.00     9
 18 APR    6 Emergence       25   0.00   2.0    1  4.4  0.00  0.01  0.00  0.00     1
  2 MAY   20 End Juveni      83   0.18   7.8    3  3.1  0.00  0.00  0.00  0.00     2
 10 MAY   28 Floral Ini     392   0.68  10.7   10  2.6  0.00  0.01  0.00  0.00     3
 18 JUN   67 75% Silkin    6068   3.08  22.2  116  1.9  0.09  0.09  0.00  0.00     4
 28 JUN   77 Beg Gr Fil    6758   2.22  22.2  120  1.8  0.76  0.00  0.00  0.00     5
 13 AUG  123 End Gr Fil    8120   0.37  22.2  120  1.5  0.82  0.00  0.00  0.00     6
 16 AUG  126 Maturity      8120   0.37  22.2  120  1.5  0.82  0.00  0.00  0.00    10
 16 AUG  126 Harvest       8120   0.37  22.2  120  1.5  0.00  0.00  0.00  0.00    10


*MAIN GROWTH AND DEVELOPMENT VARIABLES

@     VARIABLE                                         SIMULATED     MEASURED
      --------                                         ---------     --------
      Anthesis day (dap)                                      67          -99
      Physiological maturity day (dap)                       126          -99
      Yield at harvest maturity (kg [dm]/ha)                2595          -99
      Number at maturity (no/m2)                            1569          -99
      Unit wt at maturity (g [dm]/unit)                   0.1654          -99
      Number at maturity (no/unit)                         253.0          -99
      Tops weight at maturity (kg [dm]/ha)                  8120          -99
      By-product produced (stalk) at maturity (kg[dm]/ha    5582          -99
      Leaf area index, maximum                              3.08          -99
      Harvest index at maturity                            0.320          -99
      Grain N at maturity (kg/ha)                             48          -99
      Tops N at maturity (kg/ha)                             120          -99
      Stem N at maturity (kg/ha)                              72          -99
      Grain N at maturity (%)                                1.9          -99
      Tops weight at anthesis (kg [dm]/ha)                  5854          -99
      Tops N at anthesis (kg/ha)                             115          -99
      Leaf number per stem at maturity                     22.21          -99
      Emergence day (dap)                                      6          -99


*ENVIRONMENTAL AND STRESS FACTORS

 |-----Development Phase------|--------------------------------------Environment--------------------------------------|-----------------Stress-----------------|
                              |---------------Average--------------|-----Cumulative-----|--------Count of days--------|          (0=Min, 1=Max Stress)         |
                         Time  Temp  Temp  Temp Solar Photop                Evapo    Pot TMIN TMIN TMAX TMAX TMAX RAIN|----Water----|---Nitrogen--|-Phosphorus-|
                         Span   Max   Min  Mean   Rad  [day]    CO2   Rain  Trans     ET   <    <    >    >    >    >   Photo         Photo         Photo
                         days    邂    邂    邂 MJ/m2     hr    ppm     mm     mm     mm  0邂  2邂 30邂 32邂 34邂  0mm  synth Growth  synth Growth  synth Growth
----------------------------------------------------------------------------------------------------------------------------------------------------------------
 Emergence-End Juvenile    14  28.8  19.7  24.3  13.7  24.00  372.5   80.0   41.5   52.9    0    0    5    0    0   10  0.000  0.000  0.002  0.005  0.000  0.000
 End Juvenil-Floral Init    8  28.8  19.4  24.1  15.2  24.00  372.5    0.0   13.1   32.2    0    0    2    0    0    0  0.000  0.000  0.001  0.002  0.000  0.000
 Floral Init-End Lf Grow   39  29.9  19.2  24.6  15.1  24.00  372.7  111.2  122.7  143.6    0    0   21    6    0   18  0.062  0.087  0.038  0.088  0.000  0.000
 End Lf Grth-Beg Grn Fil   10  29.1  19.0  24.0  17.8  24.00  372.9    0.0   21.3   41.6    0    0    4    0    0    0  0.558  0.673  0.000  0.000  0.000  0.000
 Grain Filling Phase       46  30.8  18.5  24.6  18.2  24.00  373.1   45.4   52.0  213.5    0    0   32   13    2   10  0.779  0.824  0.000  0.000  0.000  0.000


 Planting to Harvest      126  30.1  19.0  24.5  16.5  23.95  372.8  237.6  262.7  527.6    0    0   71   23    3   39  0.363  0.399  0.012  0.028  0.000  0.000
----------------------------------------------------------------------------------------------------------------------------------------------------------------


*Resource Productivity
 Growing season length: 126 days 

 Precipitation during growing season       237.6 mm[rain]
   Dry Matter Productivity                  3.42 kg[DM]/m3[rain]          =   34.2 kg[DM]/ha per mm[rain]
   Yield Productivity                       1.09 kg[grain yield]/m3[rain] =   10.9 kg[yield]/ha per mm[rain]

 Evapotranspiration during growing season  262.7 mm[ET]
   Dry Matter Productivity                  3.09 kg[DM]/m3[ET]            =   30.9 kg[DM]/ha per mm[ET]
   Yield Productivity                       0.99 kg[grain yield]/m3[ET]   =    9.9 kg[yield]/ha per mm[ET]

 Transpiration during growing season       135.9 mm[EP]
   Dry Matter Productivity                  5.98 kg[DM]/m3[EP]            =   59.8 kg[DM]/ha per mm[EP]
   Yield Productivity                       1.91 kg[grain yield]/m3[EP]   =   19.1 kg[yield]/ha per mm[EP]

 N applied during growing season            161. kg[N applied]/ha
   Dry Matter Productivity                  50.4 kg[DM]/kg[N applied]
   Yield Productivity                       16.1 kg[yield]/kg[N applied]

 N uptake during growing season              132 kg[N uptake]/ha
   Dry Matter Productivity                  61.5 kg[DM]/kg[N uptake]
   Yield Productivity                       19.7 kg[yield]/kg[N uptake]

--------------------------------------------------------------------------------------------------------------

                     Maize YIELD :     2595 kg/ha    [Dry weight] 

**************************************************************************************************************

*DSSAT Cropping System Model Ver. 4.6.1.000 -release      OCT 24, 2017; 10:46:45
                                                                                
*RUN   4        : P04/17                    MZCER046 ANBU2002    4              
 MODEL          : MZCER046 - Maize                                              
 EXPERIMENT     : ANBU2002 MZ  Analisis a침os de bajo rendimiento Buga          
 DATA PATH      : C:\DSSAT46\maize\                                             
 TREATMENT  4   : P04/17                    MZCER046                            
                                                                                
                                                                                
 CROP           : Maize            CULTIVAR : FNC3056          ECOTYPE :IB0001  
 STARTING DATE  : MAR 18 2002                                                   
 PLANTING DATE  : APR 17 2002        PLANTS/m2 :  6.2     ROW SPACING :  80.cm  
 WEATHER        : CUNI   2002                                                   
 SOIL           : CCBUGA2017     TEXTURE : CL    -   Suelo Buga MADR Fase I     
 SOIL INITIAL C : DEPTH: 90cm EXTR. H2O: 83.9mm  NO3:  0.0kg/ha  NH4:  0.0kg/ha 
 WATER BALANCE  : RAINFED                                                       
 IRRIGATION     : NOT IRRIGATED                                                 
 NITROGEN BAL.  : SOIL-N & N-UPTAKE SIMULATION; NO N-FIXATION                   
 N-FERTILIZER   :      161 kg/ha IN     5 APPLICATIONS                          
 RESIDUE/MANURE : INITIAL :     0 kg/ha ;       0 kg/ha IN     0 APPLICATIONS   
 ENVIRONM. OPT. : DAYL=    0.00  SRAD=    0.00  TMAX=    0.00  TMIN=    0.00    
                  RAIN=    0.00  CO2 =    0.00  DEW =    0.00  WIND=    0.00    
 SIMULATION OPT : WATER   :Y  NITROGEN:Y  N-FIX:N  PHOSPH :N  PESTS  :N         
                  PHOTO   :C  ET      :R  INFIL:S  HYDROL :R  SOM    :G         
                  CO2 372ppm  NSWIT   :1  EVAP :S  SOIL   :2  STEMP  :D         
 MANAGEMENT OPT : PLANTING:R  IRRIG   :N  FERT :D  RESIDUE:R  HARVEST:M         
                  WEATHER :M  TILLAGE :N                                        
                                                                                
*SUMMARY OF SOIL AND GENETIC INPUT PARAMETERS                                   
                                                                                
   SOIL LOWER UPPER   SAT  EXTR  INIT   ROOT   BULK     pH    NO3    NH4    ORG 
  DEPTH LIMIT LIMIT    SW    SW    SW   DIST   DENS                          C  
   cm   cm3/cm3    cm3/cm3    cm3/cm3         g/cm3         ugN/g  ugN/g     %  
------------------------------------------------------------------------------- 
  0-  5 0.215 0.331 0.341 0.116 0.331   1.00   1.68   6.70   0.00   0.00   0.75 
  5- 15 0.215 0.331 0.341 0.116 0.331   1.00   1.68   6.70   0.00   0.00   0.75 
 15- 25 0.215 0.331 0.341 0.116 0.331   1.00   1.68   6.70   0.00   0.00   0.75 
 25- 35 0.181 0.291 0.364 0.110 0.291   0.50   1.61   7.20   0.00   0.00   0.53 
 35- 45 0.181 0.291 0.364 0.110 0.291   0.50   1.61   7.20   0.00   0.00   0.53 
 45- 67 0.096 0.169 0.404 0.073 0.169   0.27   1.51   7.00   0.00   0.00   0.05 
 67- 90 0.096 0.169 0.404 0.073 0.169   0.27   1.51   7.00   0.00   0.00   0.05 
                                                                                
TOT- 90  13.3  21.7  34.0   8.4  21.7  <--cm   -  kg/ha-->    0.0    0.0  51964 
SOIL ALBEDO    : 0.09      EVAPORATION LIMIT : 6.00         MIN. FACTOR  : 1.00 
RUNOFF CURVE # :76.00      DRAINAGE RATE     : 0.60         FERT. FACTOR : 1.00 
                                                                                
 Maize      CULTIVAR :CI0003-FNC3056            ECOTYPE :IB0001                 
 P1     : 233.00  P2     : 0.5000  P5     : 976.00                              
 G2     : 956.00  G3     :  7.500  PHINT  : 45.600                              


*SIMULATED CROP AND SOIL STATUS AT MAIN DEVELOPMENT STAGES

 RUN NO.     4     P04/17                  

        CROP GROWTH     BIOMASS         LEAF   CROP N     STRESS      STRESS                                           
   DATE  AGE STAGE        kg/ha    LAI   NUM  kg/ha  %   H2O  Nitr Phos1 Phos2  RSTG                                   
 ------  --- ----------   -----  -----  ----  ---  ---  ----  ----  ----  ----  ----                                   
 18 MAR    0 Start Sim        0   0.00   0.0    0  0.0  0.00  0.00  0.00  0.00     7
 17 APR    0 Sowing           0   0.00   0.0    0  0.0  0.00  0.00  0.00  0.00     8
 18 APR    1 Germinate        0   0.00   0.0    0  0.0  0.00  0.00  0.00  0.00     9
 23 APR    6 Emergence       25   0.00   2.1    1  4.4  0.00  0.01  0.00  0.00     1
  7 MAY   20 End Juveni     110   0.23   7.8    4  3.3  0.00  0.00  0.00  0.00     2
 15 MAY   28 Floral Ini     420   0.71  10.7   10  2.4  0.00  0.06  0.00  0.00     3
 22 JUN   66 75% Silkin    6310   3.39  22.3  125  2.0  0.11  0.03  0.00  0.00     4
  3 JUL   77 Beg Gr Fil    7113   2.48  22.3  126  1.8  0.68  0.00  0.00  0.00     5
 17 AUG  122 End Gr Fil    8551   0.42  22.3  126  1.5  0.84  0.00  0.00  0.00     6
 20 AUG  125 Maturity      8551   0.42  22.3  126  1.5  0.83  0.00  0.00  0.00    10
 20 AUG  125 Harvest       8551   0.42  22.3  126  1.5  0.00  0.00  0.00  0.00    10


*MAIN GROWTH AND DEVELOPMENT VARIABLES

@     VARIABLE                                         SIMULATED     MEASURED
      --------                                         ---------     --------
      Anthesis day (dap)                                      66          -99
      Physiological maturity day (dap)                       125          -99
      Yield at harvest maturity (kg [dm]/ha)                2838          -99
      Number at maturity (no/m2)                            1640          -99
      Unit wt at maturity (g [dm]/unit)                   0.1730          -99
      Number at maturity (no/unit)                         264.5          -99
      Tops weight at maturity (kg [dm]/ha)                  8551          -99
      By-product produced (stalk) at maturity (kg[dm]/ha    5775          -99
      Leaf area index, maximum                              3.39          -99
      Harvest index at maturity                            0.332          -99
      Grain N at maturity (kg/ha)                             53          -99
      Tops N at maturity (kg/ha)                             126          -99
      Stem N at maturity (kg/ha)                              73          -99
      Grain N at maturity (%)                                1.9          -99
      Tops weight at anthesis (kg [dm]/ha)                  6064          -99
      Tops N at anthesis (kg/ha)                             124          -99
      Leaf number per stem at maturity                     22.33          -99
      Emergence day (dap)                                      6          -99


*ENVIRONMENTAL AND STRESS FACTORS

 |-----Development Phase------|--------------------------------------Environment--------------------------------------|-----------------Stress-----------------|
                              |---------------Average--------------|-----Cumulative-----|--------Count of days--------|          (0=Min, 1=Max Stress)         |
                         Time  Temp  Temp  Temp Solar Photop                Evapo    Pot TMIN TMIN TMAX TMAX TMAX RAIN|----Water----|---Nitrogen--|-Phosphorus-|
                         Span   Max   Min  Mean   Rad  [day]    CO2   Rain  Trans     ET   <    <    >    >    >    >   Photo         Photo         Photo
                         days    邂    邂    邂 MJ/m2     hr    ppm     mm     mm     mm  0邂  2邂 30邂 32邂 34邂  0mm  synth Growth  synth Growth  synth Growth
----------------------------------------------------------------------------------------------------------------------------------------------------------------
 Emergence-End Juvenile    14  28.9  19.5  24.2  14.5  24.00  372.5   64.0   39.1   55.8    0    0    6    0    0    7  0.000  0.000  0.002  0.005  0.000  0.000
 End Juvenil-Floral Init    8  28.1  20.1  24.1  13.7  24.00  372.5    0.3   11.2   28.7    0    0    0    0    0    1  0.000  0.000  0.011  0.027  0.000  0.000
 Floral Init-End Lf Grow   38  30.1  19.0  24.6  15.7  24.00  372.7  110.9  129.9  145.3    0    0   23    6    0   17  0.053  0.101  0.014  0.035  0.000  0.000
 End Lf Grth-Beg Grn Fil   11  29.3  19.2  24.3  16.9  24.00  372.9    7.0   23.6   43.5    0    0    4    1    0    1  0.479  0.623  0.000  0.000  0.000  0.000
 Grain Filling Phase       45  31.0  18.4  24.7  18.5  24.00  373.1   38.4   51.8  211.2    0    0   32   14    3    9  0.793  0.840  0.000  0.000  0.000  0.000


 Planting to Harvest      125  30.1  18.9  24.5  16.4  24.00  372.8  236.6  267.4  517.3    0    0   69   22    4   38  0.363  0.409  0.005  0.013  0.000  0.000
----------------------------------------------------------------------------------------------------------------------------------------------------------------


*Resource Productivity
 Growing season length: 125 days 

 Precipitation during growing season       236.6 mm[rain]
   Dry Matter Productivity                  3.61 kg[DM]/m3[rain]          =   36.1 kg[DM]/ha per mm[rain]
   Yield Productivity                       1.20 kg[grain yield]/m3[rain] =   12.0 kg[yield]/ha per mm[rain]

 Evapotranspiration during growing season  267.4 mm[ET]
   Dry Matter Productivity                  3.20 kg[DM]/m3[ET]            =   32.0 kg[DM]/ha per mm[ET]
   Yield Productivity                       1.06 kg[grain yield]/m3[ET]   =   10.6 kg[yield]/ha per mm[ET]

 Transpiration during growing season       146.4 mm[EP]
   Dry Matter Productivity                  5.84 kg[DM]/m3[EP]            =   58.4 kg[DM]/ha per mm[EP]
   Yield Productivity                       1.94 kg[grain yield]/m3[EP]   =   19.4 kg[yield]/ha per mm[EP]

 N applied during growing season            161. kg[N applied]/ha
   Dry Matter Productivity                  53.1 kg[DM]/kg[N applied]
   Yield Productivity                       17.6 kg[yield]/kg[N applied]

 N uptake during growing season              141 kg[N uptake]/ha
   Dry Matter Productivity                  60.6 kg[DM]/kg[N uptake]
   Yield Productivity                       20.1 kg[yield]/kg[N uptake]

--------------------------------------------------------------------------------------------------------------

                     Maize YIELD :     2838 kg/ha    [Dry weight] 

**************************************************************************************************************

*DSSAT Cropping System Model Ver. 4.6.1.000 -release      OCT 24, 2017; 10:46:45
                                                                                
*RUN   5        : P04/22                    MZCER046 ANBU2002    5              
 MODEL          : MZCER046 - Maize                                              
 EXPERIMENT     : ANBU2002 MZ  Analisis a침os de bajo rendimiento Buga          
 DATA PATH      : C:\DSSAT46\maize\                                             
 TREATMENT  5   : P04/22                    MZCER046                            
                                                                                
                                                                                
 CROP           : Maize            CULTIVAR : FNC3056          ECOTYPE :IB0001  
 STARTING DATE  : MAR 23 2002                                                   
 PLANTING DATE  : APR 22 2002        PLANTS/m2 :  6.2     ROW SPACING :  80.cm  
 WEATHER        : CUNI   2002                                                   
 SOIL           : CCBUGA2017     TEXTURE : CL    -   Suelo Buga MADR Fase I     
 SOIL INITIAL C : DEPTH: 90cm EXTR. H2O: 83.9mm  NO3:  0.0kg/ha  NH4:  0.0kg/ha 
 WATER BALANCE  : RAINFED                                                       
 IRRIGATION     : NOT IRRIGATED                                                 
 NITROGEN BAL.  : SOIL-N & N-UPTAKE SIMULATION; NO N-FIXATION                   
 N-FERTILIZER   :      161 kg/ha IN     5 APPLICATIONS                          
 RESIDUE/MANURE : INITIAL :     0 kg/ha ;       0 kg/ha IN     0 APPLICATIONS   
 ENVIRONM. OPT. : DAYL=    0.00  SRAD=    0.00  TMAX=    0.00  TMIN=    0.00    
                  RAIN=    0.00  CO2 =    0.00  DEW =    0.00  WIND=    0.00    
 SIMULATION OPT : WATER   :Y  NITROGEN:Y  N-FIX:N  PHOSPH :N  PESTS  :N         
                  PHOTO   :C  ET      :R  INFIL:S  HYDROL :R  SOM    :G         
                  CO2 372ppm  NSWIT   :1  EVAP :S  SOIL   :2  STEMP  :D         
 MANAGEMENT OPT : PLANTING:R  IRRIG   :N  FERT :D  RESIDUE:R  HARVEST:M         
                  WEATHER :M  TILLAGE :N                                        
                                                                                
*SUMMARY OF SOIL AND GENETIC INPUT PARAMETERS                                   
                                                                                
   SOIL LOWER UPPER   SAT  EXTR  INIT   ROOT   BULK     pH    NO3    NH4    ORG 
  DEPTH LIMIT LIMIT    SW    SW    SW   DIST   DENS                          C  
   cm   cm3/cm3    cm3/cm3    cm3/cm3         g/cm3         ugN/g  ugN/g     %  
------------------------------------------------------------------------------- 
  0-  5 0.215 0.331 0.341 0.116 0.331   1.00   1.68   6.70   0.00   0.00   0.75 
  5- 15 0.215 0.331 0.341 0.116 0.331   1.00   1.68   6.70   0.00   0.00   0.75 
 15- 25 0.215 0.331 0.341 0.116 0.331   1.00   1.68   6.70   0.00   0.00   0.75 
 25- 35 0.181 0.291 0.364 0.110 0.291   0.50   1.61   7.20   0.00   0.00   0.53 
 35- 45 0.181 0.291 0.364 0.110 0.291   0.50   1.61   7.20   0.00   0.00   0.53 
 45- 67 0.096 0.169 0.404 0.073 0.169   0.27   1.51   7.00   0.00   0.00   0.05 
 67- 90 0.096 0.169 0.404 0.073 0.169   0.27   1.51   7.00   0.00   0.00   0.05 
                                                                                
TOT- 90  13.3  21.7  34.0   8.4  21.7  <--cm   -  kg/ha-->    0.0    0.0  51964 
SOIL ALBEDO    : 0.09      EVAPORATION LIMIT : 6.00         MIN. FACTOR  : 1.00 
RUNOFF CURVE # :76.00      DRAINAGE RATE     : 0.60         FERT. FACTOR : 1.00 
                                                                                
 Maize      CULTIVAR :CI0003-FNC3056            ECOTYPE :IB0001                 
 P1     : 233.00  P2     : 0.5000  P5     : 976.00                              
 G2     : 956.00  G3     :  7.500  PHINT  : 45.600                              


*SIMULATED CROP AND SOIL STATUS AT MAIN DEVELOPMENT STAGES

 RUN NO.     5     P04/22                  

        CROP GROWTH     BIOMASS         LEAF   CROP N     STRESS      STRESS                                           
   DATE  AGE STAGE        kg/ha    LAI   NUM  kg/ha  %   H2O  Nitr Phos1 Phos2  RSTG                                   
 ------  --- ----------   -----  -----  ----  ---  ---  ----  ----  ----  ----  ----                                   
 23 MAR    0 Start Sim        0   0.00   0.0    0  0.0  0.00  0.00  0.00  0.00     7
 22 APR    0 Sowing           0   0.00   0.0    0  0.0  0.00  0.00  0.00  0.00     8
 23 APR    1 Germinate        0   0.00   0.0    0  0.0  0.00  0.00  0.00  0.00     9
 28 APR    6 Emergence       25   0.00   2.1    1  4.4  0.00  0.01  0.00  0.00     1
 12 MAY   20 End Juveni     129   0.27   7.8    4  3.4  0.00  0.00  0.00  0.00     2
 20 MAY   28 Floral Ini     478   0.80  10.7   17  3.6  0.00  0.01  0.00  0.00     3
 28 JUN   67 75% Silkin    6671   3.43  22.4  134  2.0  0.14  0.04  0.00  0.00     4
  8 JUL   77 Beg Gr Fil    7249   2.49  22.4  134  1.8  0.72  0.00  0.00  0.00     5
 22 AUG  122 End Gr Fil    8617   0.40  22.4  134  1.6  0.85  0.00  0.00  0.00     6
 25 AUG  125 Maturity      8617   0.40  22.4  134  1.6  0.96  0.00  0.00  0.00    10
 25 AUG  125 Harvest       8617   0.40  22.4  134  1.6  0.00  0.00  0.00  0.00    10


*MAIN GROWTH AND DEVELOPMENT VARIABLES

@     VARIABLE                                         SIMULATED     MEASURED
      --------                                         ---------     --------
      Anthesis day (dap)                                      67          -99
      Physiological maturity day (dap)                       125          -99
      Yield at harvest maturity (kg [dm]/ha)                2525          -99
      Number at maturity (no/m2)                            1397          -99
      Unit wt at maturity (g [dm]/unit)                   0.1808          -99
      Number at maturity (no/unit)                         225.3          -99
      Tops weight at maturity (kg [dm]/ha)                  8617          -99
      By-product produced (stalk) at maturity (kg[dm]/ha    6157          -99
      Leaf area index, maximum                              3.76          -99
      Harvest index at maturity                            0.293          -99
      Grain N at maturity (kg/ha)                             47          -99
      Tops N at maturity (kg/ha)                             134          -99
      Stem N at maturity (kg/ha)                              86          -99
      Grain N at maturity (%)                                1.9          -99
      Tops weight at anthesis (kg [dm]/ha)                  6583          -99
      Tops N at anthesis (kg/ha)                             113          -99
      Leaf number per stem at maturity                     22.36          -99
      Emergence day (dap)                                      6          -99


*ENVIRONMENTAL AND STRESS FACTORS

 |-----Development Phase------|--------------------------------------Environment--------------------------------------|-----------------Stress-----------------|
                              |---------------Average--------------|-----Cumulative-----|--------Count of days--------|          (0=Min, 1=Max Stress)         |
                         Time  Temp  Temp  Temp Solar Photop                Evapo    Pot TMIN TMIN TMAX TMAX TMAX RAIN|----Water----|---Nitrogen--|-Phosphorus-|
                         Span   Max   Min  Mean   Rad  [day]    CO2   Rain  Trans     ET   <    <    >    >    >    >   Photo         Photo         Photo
                         days    邂    邂    邂 MJ/m2     hr    ppm     mm     mm     mm  0邂  2邂 30邂 32邂 34邂  0mm  synth Growth  synth Growth  synth Growth
----------------------------------------------------------------------------------------------------------------------------------------------------------------
 Emergence-End Juvenile    14  28.9  19.6  24.2  14.9  24.00  372.5    7.3   27.2   56.8    0    0    4    0    0    3  0.000  0.001  0.003  0.007  0.000  0.000
 End Juvenil-Floral Init    8  28.0  20.3  24.1  13.2  24.00  372.6    8.3   11.5   27.4    0    0    1    0    0    2  0.000  0.000  0.005  0.014  0.000  0.000
 Floral Init-End Lf Grow   39  30.2  18.8  24.5  16.2  24.00  372.8  102.6  139.7  153.0    0    0   24    6    0   15  0.050  0.117  0.015  0.037  0.000  0.000
 End Lf Grth-Beg Grn Fil   10  29.6  19.3  24.4  17.3  24.00  372.9   10.8   17.5   40.8    0    0    5    1    0    3  0.603  0.702  0.006  0.016  0.000  0.000
 Grain Filling Phase       45  31.2  18.2  24.7  18.5  24.00  373.1   34.6   49.8  211.3    0    0   33   17    4    7  0.810  0.851  0.000  0.000  0.000  0.000


 Planting to Harvest      125  30.2  18.9  24.5  16.7  24.00  372.9  222.1  266.6  526.2    0    0   72   24    4   36  0.378  0.422  0.006  0.015  0.000  0.000
----------------------------------------------------------------------------------------------------------------------------------------------------------------


*Resource Productivity
 Growing season length: 125 days 

 Precipitation during growing season       222.1 mm[rain]
   Dry Matter Productivity                  3.88 kg[DM]/m3[rain]          =   38.8 kg[DM]/ha per mm[rain]
   Yield Productivity                       1.14 kg[grain yield]/m3[rain] =   11.4 kg[yield]/ha per mm[rain]

 Evapotranspiration during growing season  266.6 mm[ET]
   Dry Matter Productivity                  3.23 kg[DM]/m3[ET]            =   32.3 kg[DM]/ha per mm[ET]
   Yield Productivity                       0.95 kg[grain yield]/m3[ET]   =    9.5 kg[yield]/ha per mm[ET]

 Transpiration during growing season       150.2 mm[EP]
   Dry Matter Productivity                  5.74 kg[DM]/m3[EP]            =   57.4 kg[DM]/ha per mm[EP]
   Yield Productivity                       1.68 kg[grain yield]/m3[EP]   =   16.8 kg[yield]/ha per mm[EP]

 N applied during growing season            161. kg[N applied]/ha
   Dry Matter Productivity                  53.5 kg[DM]/kg[N applied]
   Yield Productivity                       15.7 kg[yield]/kg[N applied]

 N uptake during growing season              151 kg[N uptake]/ha
   Dry Matter Productivity                  57.1 kg[DM]/kg[N uptake]
   Yield Productivity                       16.7 kg[yield]/kg[N uptake]

--------------------------------------------------------------------------------------------------------------

                     Maize YIELD :     2525 kg/ha    [Dry weight] 

**************************************************************************************************************

*DSSAT Cropping System Model Ver. 4.6.1.000 -release      OCT 24, 2017; 10:46:45
                                                                                
*RUN   6        : P04/27                    MZCER046 ANBU2002    6              
 MODEL          : MZCER046 - Maize                                              
 EXPERIMENT     : ANBU2002 MZ  Analisis a침os de bajo rendimiento Buga          
 DATA PATH      : C:\DSSAT46\maize\                                             
 TREATMENT  6   : P04/27                    MZCER046                            
                                                                                
                                                                                
 CROP           : Maize            CULTIVAR : FNC3056          ECOTYPE :IB0001  
 STARTING DATE  : MAR 28 2002                                                   
 PLANTING DATE  : APR 27 2002        PLANTS/m2 :  6.2     ROW SPACING :  80.cm  
 WEATHER        : CUNI   2002                                                   
 SOIL           : CCBUGA2017     TEXTURE : CL    -   Suelo Buga MADR Fase I     
 SOIL INITIAL C : DEPTH: 90cm EXTR. H2O: 83.9mm  NO3:  0.0kg/ha  NH4:  0.0kg/ha 
 WATER BALANCE  : RAINFED                                                       
 IRRIGATION     : NOT IRRIGATED                                                 
 NITROGEN BAL.  : SOIL-N & N-UPTAKE SIMULATION; NO N-FIXATION                   
 N-FERTILIZER   :      161 kg/ha IN     5 APPLICATIONS                          
 RESIDUE/MANURE : INITIAL :     0 kg/ha ;       0 kg/ha IN     0 APPLICATIONS   
 ENVIRONM. OPT. : DAYL=    0.00  SRAD=    0.00  TMAX=    0.00  TMIN=    0.00    
                  RAIN=    0.00  CO2 =    0.00  DEW =    0.00  WIND=    0.00    
 SIMULATION OPT : WATER   :Y  NITROGEN:Y  N-FIX:N  PHOSPH :N  PESTS  :N         
                  PHOTO   :C  ET      :R  INFIL:S  HYDROL :R  SOM    :G         
                  CO2 372ppm  NSWIT   :1  EVAP :S  SOIL   :2  STEMP  :D         
 MANAGEMENT OPT : PLANTING:R  IRRIG   :N  FERT :D  RESIDUE:R  HARVEST:M         
                  WEATHER :M  TILLAGE :N                                        
                                                                                
*SUMMARY OF SOIL AND GENETIC INPUT PARAMETERS                                   
                                                                                
   SOIL LOWER UPPER   SAT  EXTR  INIT   ROOT   BULK     pH    NO3    NH4    ORG 
  DEPTH LIMIT LIMIT    SW    SW    SW   DIST   DENS                          C  
   cm   cm3/cm3    cm3/cm3    cm3/cm3         g/cm3         ugN/g  ugN/g     %  
------------------------------------------------------------------------------- 
  0-  5 0.215 0.331 0.341 0.116 0.331   1.00   1.68   6.70   0.00   0.00   0.75 
  5- 15 0.215 0.331 0.341 0.116 0.331   1.00   1.68   6.70   0.00   0.00   0.75 
 15- 25 0.215 0.331 0.341 0.116 0.331   1.00   1.68   6.70   0.00   0.00   0.75 
 25- 35 0.181 0.291 0.364 0.110 0.291   0.50   1.61   7.20   0.00   0.00   0.53 
 35- 45 0.181 0.291 0.364 0.110 0.291   0.50   1.61   7.20   0.00   0.00   0.53 
 45- 67 0.096 0.169 0.404 0.073 0.169   0.27   1.51   7.00   0.00   0.00   0.05 
 67- 90 0.096 0.169 0.404 0.073 0.169   0.27   1.51   7.00   0.00   0.00   0.05 
                                                                                
TOT- 90  13.3  21.7  34.0   8.4  21.7  <--cm   -  kg/ha-->    0.0    0.0  51964 
SOIL ALBEDO    : 0.09      EVAPORATION LIMIT : 6.00         MIN. FACTOR  : 1.00 
RUNOFF CURVE # :76.00      DRAINAGE RATE     : 0.60         FERT. FACTOR : 1.00 
                                                                                
 Maize      CULTIVAR :CI0003-FNC3056            ECOTYPE :IB0001                 
 P1     : 233.00  P2     : 0.5000  P5     : 976.00                              
 G2     : 956.00  G3     :  7.500  PHINT  : 45.600                              


*SIMULATED CROP AND SOIL STATUS AT MAIN DEVELOPMENT STAGES

 RUN NO.     6     P04/27                  

        CROP GROWTH     BIOMASS         LEAF   CROP N     STRESS      STRESS                                           
   DATE  AGE STAGE        kg/ha    LAI   NUM  kg/ha  %   H2O  Nitr Phos1 Phos2  RSTG                                   
 ------  --- ----------   -----  -----  ----  ---  ---  ----  ----  ----  ----  ----                                   
 28 MAR    0 Start Sim        0   0.00   0.0    0  0.0  0.00  0.00  0.00  0.00     7
 27 APR    0 Sowing           0   0.00   0.0    0  0.0  0.00  0.00  0.00  0.00     8
 28 APR    1 Germinate        0   0.00   0.0    0  0.0  0.00  0.00  0.00  0.00     9
  3 MAY    6 Emergence       25   0.00   2.1    1  4.4  0.00  0.01  0.00  0.00     1
 17 MAY   20 End Juveni     125   0.26   7.7    4  3.4  0.00  0.00  0.00  0.00     2
 25 MAY   28 Floral Ini     420   0.72  10.7   15  3.6  0.01  0.00  0.00  0.00     3
  3 JUL   67 75% Silkin    6275   3.28  22.3  132  2.1  0.14  0.02  0.00  0.00     4
 13 JUL   77 Beg Gr Fil    6384   2.19  22.3  132  2.1  0.86  0.00  0.00  0.00     5
 27 AUG  122 End Gr Fil    7444   0.35  22.3  132  1.8  0.86  0.00  0.00  0.00     6
 30 AUG  125 Maturity      7444   0.35  22.3  132  1.8  0.22  0.00  0.00  0.00    10
 30 AUG  125 Harvest       7444   0.35  22.3  132  1.8  0.00  0.00  0.00  0.00    10


*MAIN GROWTH AND DEVELOPMENT VARIABLES

@     VARIABLE                                         SIMULATED     MEASURED
      --------                                         ---------     --------
      Anthesis day (dap)                                      67          -99
      Physiological maturity day (dap)                       125          -99
      Yield at harvest maturity (kg [dm]/ha)                1656          -99
      Number at maturity (no/m2)                             894          -99
      Unit wt at maturity (g [dm]/unit)                   0.1853          -99
      Number at maturity (no/unit)                         144.2          -99
      Tops weight at maturity (kg [dm]/ha)                  7444          -99
      By-product produced (stalk) at maturity (kg[dm]/ha    5851          -99
      Leaf area index, maximum                              3.67          -99
      Harvest index at maturity                            0.223          -99
      Grain N at maturity (kg/ha)                             31          -99
      Tops N at maturity (kg/ha)                             132          -99
      Stem N at maturity (kg/ha)                             101          -99
      Grain N at maturity (%)                                1.9          -99
      Tops weight at anthesis (kg [dm]/ha)                  6229          -99
      Tops N at anthesis (kg/ha)                             132          -99
      Leaf number per stem at maturity                     22.31          -99
      Emergence day (dap)                                      6          -99


*ENVIRONMENTAL AND STRESS FACTORS

 |-----Development Phase------|--------------------------------------Environment--------------------------------------|-----------------Stress-----------------|
                              |---------------Average--------------|-----Cumulative-----|--------Count of days--------|          (0=Min, 1=Max Stress)         |
                         Time  Temp  Temp  Temp Solar Photop                Evapo    Pot TMIN TMIN TMAX TMAX TMAX RAIN|----Water----|---Nitrogen--|-Phosphorus-|
                         Span   Max   Min  Mean   Rad  [day]    CO2   Rain  Trans     ET   <    <    >    >    >    >   Photo         Photo         Photo
                         days    邂    邂    邂 MJ/m2     hr    ppm     mm     mm     mm  0邂  2邂 30邂 32邂 34邂  0mm  synth Growth  synth Growth  synth Growth
----------------------------------------------------------------------------------------------------------------------------------------------------------------
 Emergence-End Juvenile    14  28.1  20.0  24.1  14.3  24.00  372.5    1.6   11.8   53.9    0    0    1    0    0    2  0.000  0.000  0.002  0.005  0.000  0.000
 End Juvenil-Floral Init    8  29.7  19.5  24.6  14.0  24.00  372.7   28.2   19.6   29.7    0    0    4    1    0    4  0.000  0.012  0.000  0.001  0.000  0.000
 Floral Init-End Lf Grow   39  30.1  18.9  24.5  16.4  24.00  372.8   88.4  138.0  154.8    0    0   23    6    0   13  0.062  0.118  0.010  0.025  0.000  0.000
 End Lf Grth-Beg Grn Fil   10  30.2  18.9  24.6  17.2  24.00  372.9    6.6   13.0   41.0    0    0    6    1    0    4  0.780  0.854  0.000  0.000  0.000  0.000
 Grain Filling Phase       45  31.2  18.3  24.7  18.7  24.00  373.2   39.3   48.0  214.8    0    0   33   16    4    8  0.820  0.858  0.000  0.000  0.000  0.000


 Planting to Harvest      125  30.2  18.9  24.5  16.8  23.99  372.9  185.5  256.4  529.6    0    0   72   25    4   37  0.383  0.424  0.003  0.008  0.000  0.000
----------------------------------------------------------------------------------------------------------------------------------------------------------------


*Resource Productivity
 Growing season length: 125 days 

 Precipitation during growing season       185.5 mm[rain]
   Dry Matter Productivity                  4.01 kg[DM]/m3[rain]          =   40.1 kg[DM]/ha per mm[rain]
   Yield Productivity                       0.89 kg[grain yield]/m3[rain] =    8.9 kg[yield]/ha per mm[rain]

 Evapotranspiration during growing season  256.4 mm[ET]
   Dry Matter Productivity                  2.90 kg[DM]/m3[ET]            =   29.0 kg[DM]/ha per mm[ET]
   Yield Productivity                       0.65 kg[grain yield]/m3[ET]   =    6.5 kg[yield]/ha per mm[ET]

 Transpiration during growing season       144.3 mm[EP]
   Dry Matter Productivity                  5.16 kg[DM]/m3[EP]            =   51.6 kg[DM]/ha per mm[EP]
   Yield Productivity                       1.15 kg[grain yield]/m3[EP]   =   11.5 kg[yield]/ha per mm[EP]

 N applied during growing season            161. kg[N applied]/ha
   Dry Matter Productivity                  46.2 kg[DM]/kg[N applied]
   Yield Productivity                       10.3 kg[yield]/kg[N applied]

 N uptake during growing season              151 kg[N uptake]/ha
   Dry Matter Productivity                  49.3 kg[DM]/kg[N uptake]
   Yield Productivity                       11.0 kg[yield]/kg[N uptake]

--------------------------------------------------------------------------------------------------------------

                     Maize YIELD :     1656 kg/ha    [Dry weight] 

**************************************************************************************************************

*DSSAT Cropping System Model Ver. 4.6.1.000 -release      OCT 24, 2017; 10:46:45
                                                                                
*RUN   7        : P05/02                    MZCER046 ANBU2002    7              
 MODEL          : MZCER046 - Maize                                              
 EXPERIMENT     : ANBU2002 MZ  Analisis a침os de bajo rendimiento Buga          
 DATA PATH      : C:\DSSAT46\maize\                                             
 TREATMENT  7   : P05/02                    MZCER046                            
                                                                                
                                                                                
 CROP           : Maize            CULTIVAR : FNC3056          ECOTYPE :IB0001  
 STARTING DATE  : APR  2 2002                                                   
 PLANTING DATE  : MAY  2 2002        PLANTS/m2 :  6.2     ROW SPACING :  80.cm  
 WEATHER        : CUNI   2002                                                   
 SOIL           : CCBUGA2017     TEXTURE : CL    -   Suelo Buga MADR Fase I     
 SOIL INITIAL C : DEPTH: 90cm EXTR. H2O: 83.9mm  NO3:  0.0kg/ha  NH4:  0.0kg/ha 
 WATER BALANCE  : RAINFED                                                       
 IRRIGATION     : NOT IRRIGATED                                                 
 NITROGEN BAL.  : SOIL-N & N-UPTAKE SIMULATION; NO N-FIXATION                   
 N-FERTILIZER   :      161 kg/ha IN     5 APPLICATIONS                          
 RESIDUE/MANURE : INITIAL :     0 kg/ha ;       0 kg/ha IN     0 APPLICATIONS   
 ENVIRONM. OPT. : DAYL=    0.00  SRAD=    0.00  TMAX=    0.00  TMIN=    0.00    
                  RAIN=    0.00  CO2 =    0.00  DEW =    0.00  WIND=    0.00    
 SIMULATION OPT : WATER   :Y  NITROGEN:Y  N-FIX:N  PHOSPH :N  PESTS  :N         
                  PHOTO   :C  ET      :R  INFIL:S  HYDROL :R  SOM    :G         
                  CO2 372ppm  NSWIT   :1  EVAP :S  SOIL   :2  STEMP  :D         
 MANAGEMENT OPT : PLANTING:R  IRRIG   :N  FERT :D  RESIDUE:R  HARVEST:M         
                  WEATHER :M  TILLAGE :N                                        
                                                                                
*SUMMARY OF SOIL AND GENETIC INPUT PARAMETERS                                   
                                                                                
   SOIL LOWER UPPER   SAT  EXTR  INIT   ROOT   BULK     pH    NO3    NH4    ORG 
  DEPTH LIMIT LIMIT    SW    SW    SW   DIST   DENS                          C  
   cm   cm3/cm3    cm3/cm3    cm3/cm3         g/cm3         ugN/g  ugN/g     %  
------------------------------------------------------------------------------- 
  0-  5 0.215 0.331 0.341 0.116 0.331   1.00   1.68   6.70   0.00   0.00   0.75 
  5- 15 0.215 0.331 0.341 0.116 0.331   1.00   1.68   6.70   0.00   0.00   0.75 
 15- 25 0.215 0.331 0.341 0.116 0.331   1.00   1.68   6.70   0.00   0.00   0.75 
 25- 35 0.181 0.291 0.364 0.110 0.291   0.50   1.61   7.20   0.00   0.00   0.53 
 35- 45 0.181 0.291 0.364 0.110 0.291   0.50   1.61   7.20   0.00   0.00   0.53 
 45- 67 0.096 0.169 0.404 0.073 0.169   0.27   1.51   7.00   0.00   0.00   0.05 
 67- 90 0.096 0.169 0.404 0.073 0.169   0.27   1.51   7.00   0.00   0.00   0.05 
                                                                                
TOT- 90  13.3  21.7  34.0   8.4  21.7  <--cm   -  kg/ha-->    0.0    0.0  51964 
SOIL ALBEDO    : 0.09      EVAPORATION LIMIT : 6.00         MIN. FACTOR  : 1.00 
RUNOFF CURVE # :76.00      DRAINAGE RATE     : 0.60         FERT. FACTOR : 1.00 
                                                                                
 Maize      CULTIVAR :CI0003-FNC3056            ECOTYPE :IB0001                 
 P1     : 233.00  P2     : 0.5000  P5     : 976.00                              
 G2     : 956.00  G3     :  7.500  PHINT  : 45.600                              


*SIMULATED CROP AND SOIL STATUS AT MAIN DEVELOPMENT STAGES

 RUN NO.     7     P05/02                  

        CROP GROWTH     BIOMASS         LEAF   CROP N     STRESS      STRESS                                           
   DATE  AGE STAGE        kg/ha    LAI   NUM  kg/ha  %   H2O  Nitr Phos1 Phos2  RSTG                                   
 ------  --- ----------   -----  -----  ----  ---  ---  ----  ----  ----  ----  ----                                   
  2 APR    0 Start Sim        0   0.00   0.0    0  0.0  0.00  0.00  0.00  0.00     7
  2 MAY    0 Sowing           0   0.00   0.0    0  0.0  0.00  0.00  0.00  0.00     8
  3 MAY    1 Germinate        0   0.00   0.0    0  0.0  0.00  0.00  0.00  0.00     9
  8 MAY    6 Emergence       25   0.00   2.0    1  4.4  0.00  0.01  0.00  0.00     1
 22 MAY   20 End Juveni     120   0.25   7.8    4  3.6  0.02  0.00  0.00  0.00     2
 30 MAY   28 Floral Ini     363   0.64  10.8   13  3.6  0.00  0.00  0.00  0.00     3
  8 JUL   67 75% Silkin    4792   2.22  22.4  101  2.1  0.30  0.00  0.00  0.00     4
 18 JUL   77 Beg Gr Fil    4935   1.57  22.4  101  2.0  0.75  0.00  0.00  0.00     5
  1 SEP  122 End Gr Fil    6112   0.30  22.4  101  1.6  0.80  0.00  0.00  0.00     6
  4 SEP  125 Maturity      6112   0.30  22.4  101  1.6  0.00  0.00  0.00  0.00    10
  4 SEP  125 Harvest       6112   0.30  22.4  101  1.6  0.00  0.00  0.00  0.00    10


*MAIN GROWTH AND DEVELOPMENT VARIABLES

@     VARIABLE                                         SIMULATED     MEASURED
      --------                                         ---------     --------
      Anthesis day (dap)                                      67          -99
      Physiological maturity day (dap)                       125          -99
      Yield at harvest maturity (kg [dm]/ha)                1689          -99
      Number at maturity (no/m2)                             833          -99
      Unit wt at maturity (g [dm]/unit)                   0.2029          -99
      Number at maturity (no/unit)                         136.5          -99
      Tops weight at maturity (kg [dm]/ha)                  6112          -99
      By-product produced (stalk) at maturity (kg[dm]/ha    4478          -99
      Leaf area index, maximum                              2.85          -99
      Harvest index at maturity                            0.276          -99
      Grain N at maturity (kg/ha)                             31          -99
      Tops N at maturity (kg/ha)                             101          -99
      Stem N at maturity (kg/ha)                              69          -99
      Grain N at maturity (%)                                1.8          -99
      Tops weight at anthesis (kg [dm]/ha)                  4732          -99
      Tops N at anthesis (kg/ha)                             100          -99
      Leaf number per stem at maturity                     22.38          -99
      Emergence day (dap)                                      6          -99


*ENVIRONMENTAL AND STRESS FACTORS

 |-----Development Phase------|--------------------------------------Environment--------------------------------------|-----------------Stress-----------------|
                              |---------------Average--------------|-----Cumulative-----|--------Count of days--------|          (0=Min, 1=Max Stress)         |
                         Time  Temp  Temp  Temp Solar Photop                Evapo    Pot TMIN TMIN TMAX TMAX TMAX RAIN|----Water----|---Nitrogen--|-Phosphorus-|
                         Span   Max   Min  Mean   Rad  [day]    CO2   Rain  Trans     ET   <    <    >    >    >    >   Photo         Photo         Photo
                         days    邂    邂    邂 MJ/m2     hr    ppm     mm     mm     mm  0邂  2邂 30邂 32邂 34邂  0mm  synth Growth  synth Growth  synth Growth
----------------------------------------------------------------------------------------------------------------------------------------------------------------
 Emergence-End Juvenile    14  28.5  20.1  24.3  13.6  24.00  372.6   22.6   13.3   51.5    0    0    2    0    0    5  0.000  0.018  0.002  0.006  0.000  0.000
 End Juvenil-Floral Init    8  30.3  18.5  24.4  15.8  24.00  372.7   22.2   24.4   33.8    0    0    5    2    0    3  0.000  0.000  0.000  0.001  0.000  0.000
 Floral Init-End Lf Grow   39  30.0  18.9  24.5  16.7  24.00  372.8   77.2  120.2  158.5    0    0   23    5    0   13  0.199  0.279  0.000  0.000  0.000  0.000
 End Lf Grth-Beg Grn Fil   10  31.6  18.7  25.1  17.2  24.00  373.0   10.4   14.7   42.3    0    0    8    4    0    3  0.750  0.834  0.000  0.000  0.000  0.000
 Grain Filling Phase       45  31.1  18.3  24.7  18.6  23.86  373.2   39.1   51.9  216.5    0    0   32   15    4   10  0.725  0.775  0.000  0.000  0.000  0.000


 Planting to Harvest      125  30.4  18.8  24.6  17.0  23.84  372.9  178.8  235.9  543.7    0    0   75   29    4   35  0.390  0.442  0.000  0.001  0.000  0.000
----------------------------------------------------------------------------------------------------------------------------------------------------------------


*Resource Productivity
 Growing season length: 125 days 

 Precipitation during growing season       178.8 mm[rain]
   Dry Matter Productivity                  3.42 kg[DM]/m3[rain]          =   34.2 kg[DM]/ha per mm[rain]
   Yield Productivity                       0.94 kg[grain yield]/m3[rain] =    9.4 kg[yield]/ha per mm[rain]

 Evapotranspiration during growing season  235.9 mm[ET]
   Dry Matter Productivity                  2.59 kg[DM]/m3[ET]            =   25.9 kg[DM]/ha per mm[ET]
   Yield Productivity                       0.72 kg[grain yield]/m3[ET]   =    7.2 kg[yield]/ha per mm[ET]

 Transpiration during growing season       123.4 mm[EP]
   Dry Matter Productivity                  4.95 kg[DM]/m3[EP]            =   49.5 kg[DM]/ha per mm[EP]
   Yield Productivity                       1.37 kg[grain yield]/m3[EP]   =   13.7 kg[yield]/ha per mm[EP]

 N applied during growing season            161. kg[N applied]/ha
   Dry Matter Productivity                  38.0 kg[DM]/kg[N applied]
   Yield Productivity                       10.5 kg[yield]/kg[N applied]

 N uptake during growing season              117 kg[N uptake]/ha
   Dry Matter Productivity                  52.2 kg[DM]/kg[N uptake]
   Yield Productivity                       14.4 kg[yield]/kg[N uptake]

--------------------------------------------------------------------------------------------------------------

                     Maize YIELD :     1689 kg/ha    [Dry weight] 

**************************************************************************************************************

*DSSAT Cropping System Model Ver. 4.6.1.000 -release      OCT 24, 2017; 10:46:45
                                                                                
*RUN   8        : P05/07                    MZCER046 ANBU2002    8              
 MODEL          : MZCER046 - Maize                                              
 EXPERIMENT     : ANBU2002 MZ  Analisis a침os de bajo rendimiento Buga          
 DATA PATH      : C:\DSSAT46\maize\                                             
 TREATMENT  8   : P05/07                    MZCER046                            
                                                                                
                                                                                
 CROP           : Maize            CULTIVAR : FNC3056          ECOTYPE :IB0001  
 STARTING DATE  : APR  7 2002                                                   
 PLANTING DATE  : MAY  7 2002        PLANTS/m2 :  6.2     ROW SPACING :  80.cm  
 WEATHER        : CUNI   2002                                                   
 SOIL           : CCBUGA2017     TEXTURE : CL    -   Suelo Buga MADR Fase I     
 SOIL INITIAL C : DEPTH: 90cm EXTR. H2O: 83.9mm  NO3:  0.0kg/ha  NH4:  0.0kg/ha 
 WATER BALANCE  : RAINFED                                                       
 IRRIGATION     : NOT IRRIGATED                                                 
 NITROGEN BAL.  : SOIL-N & N-UPTAKE SIMULATION; NO N-FIXATION                   
 N-FERTILIZER   :      161 kg/ha IN     5 APPLICATIONS                          
 RESIDUE/MANURE : INITIAL :     0 kg/ha ;       0 kg/ha IN     0 APPLICATIONS   
 ENVIRONM. OPT. : DAYL=    0.00  SRAD=    0.00  TMAX=    0.00  TMIN=    0.00    
                  RAIN=    0.00  CO2 =    0.00  DEW =    0.00  WIND=    0.00    
 SIMULATION OPT : WATER   :Y  NITROGEN:Y  N-FIX:N  PHOSPH :N  PESTS  :N         
                  PHOTO   :C  ET      :R  INFIL:S  HYDROL :R  SOM    :G         
                  CO2 372ppm  NSWIT   :1  EVAP :S  SOIL   :2  STEMP  :D         
 MANAGEMENT OPT : PLANTING:R  IRRIG   :N  FERT :D  RESIDUE:R  HARVEST:M         
                  WEATHER :M  TILLAGE :N                                        
                                                                                
*SUMMARY OF SOIL AND GENETIC INPUT PARAMETERS                                   
                                                                                
   SOIL LOWER UPPER   SAT  EXTR  INIT   ROOT   BULK     pH    NO3    NH4    ORG 
  DEPTH LIMIT LIMIT    SW    SW    SW   DIST   DENS                          C  
   cm   cm3/cm3    cm3/cm3    cm3/cm3         g/cm3         ugN/g  ugN/g     %  
------------------------------------------------------------------------------- 
  0-  5 0.215 0.331 0.341 0.116 0.331   1.00   1.68   6.70   0.00   0.00   0.75 
  5- 15 0.215 0.331 0.341 0.116 0.331   1.00   1.68   6.70   0.00   0.00   0.75 
 15- 25 0.215 0.331 0.341 0.116 0.331   1.00   1.68   6.70   0.00   0.00   0.75 
 25- 35 0.181 0.291 0.364 0.110 0.291   0.50   1.61   7.20   0.00   0.00   0.53 
 35- 45 0.181 0.291 0.364 0.110 0.291   0.50   1.61   7.20   0.00   0.00   0.53 
 45- 67 0.096 0.169 0.404 0.073 0.169   0.27   1.51   7.00   0.00   0.00   0.05 
 67- 90 0.096 0.169 0.404 0.073 0.169   0.27   1.51   7.00   0.00   0.00   0.05 
                                                                                
TOT- 90  13.3  21.7  34.0   8.4  21.7  <--cm   -  kg/ha-->    0.0    0.0  51964 
SOIL ALBEDO    : 0.09      EVAPORATION LIMIT : 6.00         MIN. FACTOR  : 1.00 
RUNOFF CURVE # :76.00      DRAINAGE RATE     : 0.60         FERT. FACTOR : 1.00 
                                                                                
 Maize      CULTIVAR :CI0003-FNC3056            ECOTYPE :IB0001                 
 P1     : 233.00  P2     : 0.5000  P5     : 976.00                              
 G2     : 956.00  G3     :  7.500  PHINT  : 45.600                              


*SIMULATED CROP AND SOIL STATUS AT MAIN DEVELOPMENT STAGES

 RUN NO.     8     P05/07                  

        CROP GROWTH     BIOMASS         LEAF   CROP N     STRESS      STRESS                                           
   DATE  AGE STAGE        kg/ha    LAI   NUM  kg/ha  %   H2O  Nitr Phos1 Phos2  RSTG                                   
 ------  --- ----------   -----  -----  ----  ---  ---  ----  ----  ----  ----  ----                                   
  7 APR    0 Start Sim        0   0.00   0.0    0  0.0  0.00  0.00  0.00  0.00     7
  7 MAY    0 Sowing           0   0.00   0.0    0  0.0  0.00  0.00  0.00  0.00     8
  8 MAY    1 Germinate        0   0.00   0.0    0  0.0  0.00  0.00  0.00  0.00     9
 13 MAY    6 Emergence       25   0.00   2.0    1  4.4  0.00  0.01  0.00  0.00     1
 27 MAY   20 End Juveni      91   0.20   7.8    3  3.4  0.00  0.00  0.00  0.00     2
  4 JUN   28 Floral Ini     386   0.67  10.8   14  3.6  0.00  0.00  0.00  0.00     3
 13 JUL   67 75% Silkin    4360   1.85  22.4  101  2.3  0.37  0.04  0.00  0.00     4
 22 JUL   76 Beg Gr Fil    4433   1.30  22.4  101  2.3  0.80  0.00  0.00  0.00     5
  6 SEP  122 End Gr Fil    5612   0.25  22.4  101  1.8  0.76  0.00  0.00  0.00     6
  9 SEP  125 Maturity      5612   0.25  22.4  101  1.8  0.95  0.00  0.00  0.00    10
[...]
 NITROGEN BAL.  : SOIL-N & N-UPTAKE SIMULATION; NO N-FIXATION                   
 N-FERTILIZER   :      161 kg/ha IN     5 APPLICATIONS                          
 RESIDUE/MANURE : INITIAL :     0 kg/ha ;       0 kg/ha IN     0 APPLICATIONS   
 ENVIRONM. OPT. : DAYL=    0.00  SRAD=    0.00  TMAX=    0.00  TMIN=    0.00    
                  RAIN=    0.00  CO2 =    0.00  DEW =    0.00  WIND=    0.00    
 SIMULATION OPT : WATER   :Y  NITROGEN:Y  N-FIX:N  PHOSPH :N  PESTS  :N         
                  PHOTO   :C  ET      :R  INFIL:S  HYDROL :R  SOM    :G         
                  CO2 374ppm  NSWIT   :1  EVAP :S  SOIL   :2  STEMP  :D         
 MANAGEMENT OPT : PLANTING:R  IRRIG   :N  FERT :D  RESIDUE:R  HARVEST:M         
                  WEATHER :M  TILLAGE :N                                        
                                                                                
*SUMMARY OF SOIL AND GENETIC INPUT PARAMETERS                                   
                                                                                
   SOIL LOWER UPPER   SAT  EXTR  INIT   ROOT   BULK     pH    NO3    NH4    ORG 
  DEPTH LIMIT LIMIT    SW    SW    SW   DIST   DENS                          C  
   cm   cm3/cm3    cm3/cm3    cm3/cm3         g/cm3         ugN/g  ugN/g     %  
------------------------------------------------------------------------------- 
  0-  5 0.215 0.331 0.341 0.116 0.331   1.00   1.68   6.70   0.00   0.00   0.75 
  5- 15 0.215 0.331 0.341 0.116 0.331   1.00   1.68   6.70   0.00   0.00   0.75 
 15- 25 0.215 0.331 0.341 0.116 0.331   1.00   1.68   6.70   0.00   0.00   0.75 
 25- 35 0.181 0.291 0.364 0.110 0.291   0.50   1.61   7.20   0.00   0.00   0.53 
 35- 45 0.181 0.291 0.364 0.110 0.291   0.50   1.61   7.20   0.00   0.00   0.53 
 45- 67 0.096 0.169 0.404 0.073 0.169   0.27   1.51   7.00   0.00   0.00   0.05 
 67- 90 0.096 0.169 0.404 0.073 0.169   0.27   1.51   7.00   0.00   0.00   0.05 
                                                                                
TOT- 90  13.3  21.7  34.0   8.4  21.7  <--cm   -  kg/ha-->    0.0    0.0  51964 
SOIL ALBEDO    : 0.09      EVAPORATION LIMIT : 6.00         MIN. FACTOR  : 1.00 
RUNOFF CURVE # :76.00      DRAINAGE RATE     : 0.60         FERT. FACTOR : 1.00 
                                                                                
 Maize      CULTIVAR :CI0003-FNC3056            ECOTYPE :IB0001                 
 P1     : 233.00  P2     : 0.5000  P5     : 976.00                              
 G2     : 956.00  G3     :  7.500  PHINT  : 45.600                              


*SIMULATED CROP AND SOIL STATUS AT MAIN DEVELOPMENT STAGES

 RUN NO.    35     P12/14                  

        CROP GROWTH     BIOMASS         LEAF   CROP N     STRESS      STRESS                                           
   DATE  AGE STAGE        kg/ha    LAI   NUM  kg/ha  %   H2O  Nitr Phos1 Phos2  RSTG                                   
 ------  --- ----------   -----  -----  ----  ---  ---  ----  ----  ----  ----  ----                                   
 14 NOV    0 Start Sim        0   0.00   0.0    0  0.0  0.00  0.00  0.00  0.00     7
 14 DEC    0 Sowing           0   0.00   0.0    0  0.0  0.00  0.00  0.00  0.00     8
 15 DEC    1 Germinate        0   0.00   0.0    0  0.0  0.00  0.00  0.00  0.00     9
 20 DEC    6 Emergence       25   0.00   2.0    1  4.4  0.00  0.01  0.00  0.00     1
  2 JAN   19 End Juveni     105   0.22   7.6    3  3.3  0.00  0.00  0.00  0.00     2
  6 JAN   23 Floral Ini     235   0.45   9.1    8  3.3  0.00  0.00  0.00  0.00     3
  8 FEB   56 75% Silkin    2294   1.02  19.2   36  1.6  0.41  0.26  0.00  0.00     4
 18 FEB   66 Beg Gr Fil    2486   0.78  19.2   46  1.8  0.65  0.15  0.00  0.00     5
  2 APR  109 End Gr Fil    3873   0.29  19.2   50  1.3  0.48  0.00  0.00  0.00     6
  5 APR  112 Maturity      3873   0.29  19.2   50  1.3  0.00  0.00  0.00  0.00    10
  5 APR  112 Harvest       3873   0.29  19.2   50  1.3  0.00  0.00  0.00  0.00    10


*MAIN GROWTH AND DEVELOPMENT VARIABLES

@     VARIABLE                                         SIMULATED     MEASURED
      --------                                         ---------     --------
      Anthesis day (dap)                                      56          -99
      Physiological maturity day (dap)                       112          -99
      Yield at harvest maturity (kg [dm]/ha)                1612          -99
      Number at maturity (no/m2)                             673          -99
      Unit wt at maturity (g [dm]/unit)                   0.2394          -99
      Number at maturity (no/unit)                         116.4          -99
      Tops weight at maturity (kg [dm]/ha)                  3873          -99
      By-product produced (stalk) at maturity (kg[dm]/ha    2292          -99
      Leaf area index, maximum                              1.31          -99
      Harvest index at maturity                            0.416          -99
      Grain N at maturity (kg/ha)                             29          -99
      Tops N at maturity (kg/ha)                              50          -99
      Stem N at maturity (kg/ha)                              19          -99
      Grain N at maturity (%)                                1.8          -99
      Tops weight at anthesis (kg [dm]/ha)                  2271          -99
      Tops N at anthesis (kg/ha)                              36          -99
      Leaf number per stem at maturity                     19.15          -99
      Emergence day (dap)                                      6          -99


*ENVIRONMENTAL AND STRESS FACTORS

 |-----Development Phase------|--------------------------------------Environment--------------------------------------|-----------------Stress-----------------|
                              |---------------Average--------------|-----Cumulative-----|--------Count of days--------|          (0=Min, 1=Max Stress)         |
                         Time  Temp  Temp  Temp Solar Photop                Evapo    Pot TMIN TMIN TMAX TMAX TMAX RAIN|----Water----|---Nitrogen--|-Phosphorus-|
                         Span   Max   Min  Mean   Rad  [day]    CO2   Rain  Trans     ET   <    <    >    >    >    >   Photo         Photo         Photo
                         days    邂    邂    邂 MJ/m2     hr    ppm     mm     mm     mm  0邂  2邂 30邂 32邂 34邂  0mm  synth Growth  synth Growth  synth Growth
----------------------------------------------------------------------------------------------------------------------------------------------------------------
 Emergence-End Juvenile    13  29.9  19.2  24.5  14.6   0.00  374.3    0.0   14.2   52.0    0    0    5    3    0    0  0.000  0.000  0.002  0.005  0.000  0.000
 End Juvenil-Floral Init    4  32.0  18.8  25.4  16.9   0.00  374.3    0.0    4.7   18.3    0    0    4    1    0    0  0.000  0.000  0.000  0.001  0.000  0.000
 Floral Init-End Lf Grow   33  31.3  18.6  24.9  16.1   0.00  374.4   13.6   60.0  135.1    0    0   25   13    1    2  0.296  0.386  0.118  0.254  0.000  0.000
 End Lf Grth-Beg Grn Fil   10  32.2  19.6  25.9  10.5   0.00  374.6   13.7   14.5   27.4    0    0   10    4    1    4  0.515  0.644  0.074  0.184  0.000  0.000
 Grain Filling Phase       43  32.0  19.1  25.5  16.1   7.32  374.8   91.0   68.9  187.7    0    0   34   24    4   13  0.465  0.496  0.000  0.000  0.000  0.000


 Planting to Harvest      112  31.5  19.0  25.3  15.2   3.25  374.6  159.8  186.2  453.8    0    0   86   48    7   23  0.312  0.362  0.041  0.092  0.000  0.000
----------------------------------------------------------------------------------------------------------------------------------------------------------------


*Resource Productivity
 Growing season length: 112 days 

 Precipitation during growing season       159.8 mm[rain]
   Dry Matter Productivity                  2.42 kg[DM]/m3[rain]          =   24.2 kg[DM]/ha per mm[rain]
   Yield Productivity                       1.01 kg[grain yield]/m3[rain] =   10.1 kg[yield]/ha per mm[rain]

 Evapotranspiration during growing season  186.2 mm[ET]
   Dry Matter Productivity                  2.08 kg[DM]/m3[ET]            =   20.8 kg[DM]/ha per mm[ET]
   Yield Productivity                       0.87 kg[grain yield]/m3[ET]   =    8.7 kg[yield]/ha per mm[ET]

 Transpiration during growing season        78.5 mm[EP]
   Dry Matter Productivity                  4.94 kg[DM]/m3[EP]            =   49.4 kg[DM]/ha per mm[EP]
   Yield Productivity                       2.05 kg[grain yield]/m3[EP]   =   20.5 kg[yield]/ha per mm[EP]

 N applied during growing season            161. kg[N applied]/ha
   Dry Matter Productivity                  24.1 kg[DM]/kg[N applied]
   Yield Productivity                       10.0 kg[yield]/kg[N applied]

 N uptake during growing season               54 kg[N uptake]/ha
   Dry Matter Productivity                  71.7 kg[DM]/kg[N uptake]
   Yield Productivity                       29.9 kg[yield]/kg[N uptake]

--------------------------------------------------------------------------------------------------------------

                     Maize YIELD :     1612 kg/ha    [Dry weight] 

**************************************************************************************************************

*DSSAT Cropping System Model Ver. 4.6.1.000 -release      OCT 24, 2017; 10:46:58
                                                                                
*RUN  36        : P12/19                    MZCER046 ANBU2002   36              
 MODEL          : MZCER046 - Maize                                              
 EXPERIMENT     : ANBU2002 MZ  Analisis a침os de bajo rendimiento Buga          
 DATA PATH      : C:\DSSAT46\maize\                                             
 TREATMENT 36   : P12/19                    MZCER046                            
                                                                                
                                                                                
 CROP           : Maize            CULTIVAR : FNC3056          ECOTYPE :IB0001  
 STARTING DATE  : NOV 19 2002                                                   
 PLANTING DATE  : DEC 19 2002        PLANTS/m2 :  6.2     ROW SPACING :  80.cm  
 WEATHER        : CUNI   2002                                                   
 SOIL           : CCBUGA2017     TEXTURE : CL    -   Suelo Buga MADR Fase I     
 SOIL INITIAL C : DEPTH: 90cm EXTR. H2O: 83.9mm  NO3:  0.0kg/ha  NH4:  0.0kg/ha 
 WATER BALANCE  : RAINFED                                                       
 IRRIGATION     : NOT IRRIGATED                                                 
 NITROGEN BAL.  : SOIL-N & N-UPTAKE SIMULATION; NO N-FIXATION                   
 N-FERTILIZER   :      161 kg/ha IN     5 APPLICATIONS                          
 RESIDUE/MANURE : INITIAL :     0 kg/ha ;       0 kg/ha IN     0 APPLICATIONS   
 ENVIRONM. OPT. : DAYL=    0.00  SRAD=    0.00  TMAX=    0.00  TMIN=    0.00    
                  RAIN=    0.00  CO2 =    0.00  DEW =    0.00  WIND=    0.00    
 SIMULATION OPT : WATER   :Y  NITROGEN:Y  N-FIX:N  PHOSPH :N  PESTS  :N         
                  PHOTO   :C  ET      :R  INFIL:S  HYDROL :R  SOM    :G         
                  CO2 374ppm  NSWIT   :1  EVAP :S  SOIL   :2  STEMP  :D         
 MANAGEMENT OPT : PLANTING:R  IRRIG   :N  FERT :D  RESIDUE:R  HARVEST:M         
                  WEATHER :M  TILLAGE :N                                        
                                                                                
*SUMMARY OF SOIL AND GENETIC INPUT PARAMETERS                                   
                                                                                
   SOIL LOWER UPPER   SAT  EXTR  INIT   ROOT   BULK     pH    NO3    NH4    ORG 
  DEPTH LIMIT LIMIT    SW    SW    SW   DIST   DENS                          C  
   cm   cm3/cm3    cm3/cm3    cm3/cm3         g/cm3         ugN/g  ugN/g     %  
------------------------------------------------------------------------------- 
  0-  5 0.215 0.331 0.341 0.116 0.331   1.00   1.68   6.70   0.00   0.00   0.75 
  5- 15 0.215 0.331 0.341 0.116 0.331   1.00   1.68   6.70   0.00   0.00   0.75 
 15- 25 0.215 0.331 0.341 0.116 0.331   1.00   1.68   6.70   0.00   0.00   0.75 
 25- 35 0.181 0.291 0.364 0.110 0.291   0.50   1.61   7.20   0.00   0.00   0.53 
 35- 45 0.181 0.291 0.364 0.110 0.291   0.50   1.61   7.20   0.00   0.00   0.53 
 45- 67 0.096 0.169 0.404 0.073 0.169   0.27   1.51   7.00   0.00   0.00   0.05 
 67- 90 0.096 0.169 0.404 0.073 0.169   0.27   1.51   7.00   0.00   0.00   0.05 
                                                                                
TOT- 90  13.3  21.7  34.0   8.4  21.7  <--cm   -  kg/ha-->    0.0    0.0  51964 
SOIL ALBEDO    : 0.09      EVAPORATION LIMIT : 6.00         MIN. FACTOR  : 1.00 
RUNOFF CURVE # :76.00      DRAINAGE RATE     : 0.60         FERT. FACTOR : 1.00 
                                                                                
 Maize      CULTIVAR :CI0003-FNC3056            ECOTYPE :IB0001                 
 P1     : 233.00  P2     : 0.5000  P5     : 976.00                              
 G2     : 956.00  G3     :  7.500  PHINT  : 45.600                              


*SIMULATED CROP AND SOIL STATUS AT MAIN DEVELOPMENT STAGES

 RUN NO.    36     P12/19                  

        CROP GROWTH     BIOMASS         LEAF   CROP N     STRESS      STRESS                                           
   DATE  AGE STAGE        kg/ha    LAI   NUM  kg/ha  %   H2O  Nitr Phos1 Phos2  RSTG                                   
 ------  --- ----------   -----  -----  ----  ---  ---  ----  ----  ----  ----  ----                                   
 19 NOV    0 Start Sim        0   0.00   0.0    0  0.0  0.00  0.00  0.00  0.00     7
 19 DEC    0 Sowing           0   0.00   0.0    0  0.0  0.00  0.00  0.00  0.00     8
 20 DEC    1 Germinate        0   0.00   0.0    0  0.0  0.00  0.00  0.00  0.00     9
 25 DEC    6 Emergence       25   0.00   2.0    1  4.4  0.00  0.01  0.00  0.00     1
  7 JAN   19 End Juveni     116   0.24   7.7    4  3.4  0.00  0.01  0.00  0.00     2
 11 JAN   23 Floral Ini     260   0.49   9.3    8  3.0  0.00  0.00  0.00  0.00     3
 13 FEB   56 75% Silkin    2675   1.27  19.4   31  1.1  0.44  0.37  0.00  0.00     4
 22 FEB   65 Beg Gr Fil    2850   0.96  19.4   59  2.1  0.70  0.06  0.00  0.00     5
  7 APR  109 End Gr Fil    4730   0.40  19.4   59  1.3  0.40  0.00  0.00  0.00     6
  9 APR  111 Maturity      4730   0.40  19.4   59  1.3  0.00  0.00  0.00  0.00    10
  9 APR  111 Harvest       4730   0.40  19.4   59  1.3  0.00  0.00  0.00  0.00    10


*MAIN GROWTH AND DEVELOPMENT VARIABLES

@     VARIABLE                                         SIMULATED     MEASURED
      --------                                         ---------     --------
      Anthesis day (dap)                                      56          -99
      Physiological maturity day (dap)                       111          -99
      Yield at harvest maturity (kg [dm]/ha)                1815          -99
      Number at maturity (no/m2)                             708          -99
      Unit wt at maturity (g [dm]/unit)                   0.2564          -99
      Number at maturity (no/unit)                         120.8          -99
      Tops weight at maturity (kg [dm]/ha)                  4730          -99
      By-product produced (stalk) at maturity (kg[dm]/ha    2951          -99
      Leaf area index, maximum                              1.70          -99
      Harvest index at maturity                            0.384          -99
      Grain N at maturity (kg/ha)                             32          -99
      Tops N at maturity (kg/ha)                              59          -99
      Stem N at maturity (kg/ha)                              25          -99
      Grain N at maturity (%)                                1.8          -99
      Tops weight at anthesis (kg [dm]/ha)                  2664          -99
      Tops N at anthesis (kg/ha)                              31          -99
      Leaf number per stem at maturity                     19.40          -99
      Emergence day (dap)                                      6          -99


*ENVIRONMENTAL AND STRESS FACTORS

 |-----Development Phase------|--------------------------------------Environment--------------------------------------|-----------------Stress-----------------|
                              |---------------Average--------------|-----Cumulative-----|--------Count of days--------|          (0=Min, 1=Max Stress)         |
                         Time  Temp  Temp  Temp Solar Photop                Evapo    Pot TMIN TMIN TMAX TMAX TMAX RAIN|----Water----|---Nitrogen--|-Phosphorus-|
                         Span   Max   Min  Mean   Rad  [day]    CO2   Rain  Trans     ET   <    <    >    >    >    >   Photo         Photo         Photo
                         days    邂    邂    邂 MJ/m2     hr    ppm     mm     mm     mm  0邂  2邂 30邂 32邂 34邂  0mm  synth Growth  synth Growth  synth Growth
----------------------------------------------------------------------------------------------------------------------------------------------------------------
 Emergence-End Juvenile    13  30.9  19.0  25.0  15.9   0.00  374.3    0.0   10.1   56.8    0    0    9    4    0    0  0.000  0.000  0.003  0.008  0.000  0.000
 End Juvenil-Floral Init    4  31.4  17.8  24.6  17.5   0.00  374.3    0.0    4.6   18.7    0    0    3    1    0    0  0.000  0.000  0.001  0.001  0.000  0.000
 Floral Init-End Lf Grow   33  31.5  18.9  25.2  15.1   0.00  374.5   18.1   64.5  126.1    0    0   26   15    2    4  0.295  0.412  0.159  0.354  0.000  0.000
 End Lf Grth-Beg Grn Fil    9  32.5  19.6  26.0  10.4   0.00  374.7   10.2   13.8   24.3    0    0    9    4    1    3  0.591  0.691  0.064  0.127  0.000  0.000
 Grain Filling Phase       44  32.0  19.1  25.5  16.8   9.04  374.8   90.0   75.1  198.7    0    0   35   26    4   12  0.402  0.420  0.000  0.000  0.000  0.000


 Planting to Harvest      111  31.6  19.0  25.3  15.5   3.91  374.6  123.0  183.3  456.5    0    0   85   51    7   20  0.295  0.345  0.053  0.116  0.000  0.000
----------------------------------------------------------------------------------------------------------------------------------------------------------------


*Resource Productivity
 Growing season length: 111 days 

 Precipitation during growing season       123.0 mm[rain]
   Dry Matter Productivity                  3.85 kg[DM]/m3[rain]          =   38.5 kg[DM]/ha per mm[rain]
   Yield Productivity                       1.48 kg[grain yield]/m3[rain] =   14.8 kg[yield]/ha per mm[rain]

 Evapotranspiration during growing season  183.3 mm[ET]
   Dry Matter Productivity                  2.58 kg[DM]/m3[ET]            =   25.8 kg[DM]/ha per mm[ET]
   Yield Productivity                       0.99 kg[grain yield]/m3[ET]   =    9.9 kg[yield]/ha per mm[ET]

 Transpiration during growing season        91.2 mm[EP]
   Dry Matter Productivity                  5.19 kg[DM]/m3[EP]            =   51.9 kg[DM]/ha per mm[EP]
   Yield Productivity                       1.99 kg[grain yield]/m3[EP]   =   19.9 kg[yield]/ha per mm[EP]

 N applied during growing season            161. kg[N applied]/ha
   Dry Matter Productivity                  29.4 kg[DM]/kg[N applied]
   Yield Productivity                       11.3 kg[yield]/kg[N applied]

 N uptake during growing season               65 kg[N uptake]/ha
   Dry Matter Productivity                  72.8 kg[DM]/kg[N uptake]
   Yield Productivity                       27.9 kg[yield]/kg[N uptake]

--------------------------------------------------------------------------------------------------------------

                     Maize YIELD :     1815 kg/ha    [Dry weight] 

**************************************************************************************************************
