*SIMULATION OVERVIEW FILE

*DSSAT Cropping System Model Ver. 4.6.1.000 -release      OCT 02, 2017; 13:30:47
                                                                                
*RUN   1        : P04/02                    MZCER046 ANBU1997    1              
 MODEL          : MZCER046 - Maize                                              
 EXPERIMENT     : ANBU1997 MZ  Analisis a침os de bajo rendimiento Buga          
 DATA PATH      : C:\DSSAT46\maize\                                             
 TREATMENT  1   : P04/02                    MZCER046                            
                                                                                
                                                                                
 CROP           : Maize            CULTIVAR : DK7088           ECOTYPE :IB0001  
 STARTING DATE  : MAR  3 1997                                                   
 PLANTING DATE  : APR  2 1997        PLANTS/m2 :  6.2     ROW SPACING :  80.cm  
 WEATHER        : CUNI   1997                                                   
 SOIL           : CCBUGA2017     TEXTURE : CL    -   Suelo Buga MADR Fase I     
 SOIL INITIAL C : DEPTH: 90cm EXTR. H2O: 83.9mm  NO3:151.4kg/ha  NH4: 62.4kg/ha 
 WATER BALANCE  : RAINFED                                                       
 IRRIGATION     : NOT IRRIGATED                                                 
 NITROGEN BAL.  : SOIL-N & N-UPTAKE SIMULATION; NO N-FIXATION                   
 N-FERTILIZER   :      161 kg/ha IN     5 APPLICATIONS                          
 RESIDUE/MANURE : INITIAL :     0 kg/ha ;       0 kg/ha IN     0 APPLICATIONS   
 ENVIRONM. OPT. : DAYL=    0.00  SRAD=    0.00  TMAX=    0.00  TMIN=    0.00    
                  RAIN=    0.00  CO2 =    0.00  DEW =    0.00  WIND=    0.00    
 SIMULATION OPT : WATER   :Y  NITROGEN:Y  N-FIX:N  PHOSPH :N  PESTS  :N         
                  PHOTO   :C  ET      :R  INFIL:S  HYDROL :R  SOM    :G         
                  CO2 363ppm  NSWIT   :1  EVAP :S  SOIL   :2  STEMP  :D         
 MANAGEMENT OPT : PLANTING:R  IRRIG   :N  FERT :D  RESIDUE:R  HARVEST:M         
                  WEATHER :M  TILLAGE :N                                        
                                                                                
*SUMMARY OF SOIL AND GENETIC INPUT PARAMETERS                                   
                                                                                
   SOIL LOWER UPPER   SAT  EXTR  INIT   ROOT   BULK     pH    NO3    NH4    ORG 
  DEPTH LIMIT LIMIT    SW    SW    SW   DIST   DENS                          C  
   cm   cm3/cm3    cm3/cm3    cm3/cm3         g/cm3         ugN/g  ugN/g     %  
------------------------------------------------------------------------------- 
  0-  5 0.215 0.331 0.341 0.116 0.319   1.00   1.68   6.70  11.90   4.21   0.75 
  5- 15 0.215 0.331 0.341 0.116 0.319   1.00   1.68   6.70  11.90   4.21   0.75 
 15- 25 0.215 0.331 0.341 0.116 0.319   1.00   1.68   6.70  11.90   4.21   0.75 
 25- 35 0.181 0.291 0.364 0.110 0.331   0.50   1.61   7.20  12.15   4.32   0.53 
 35- 45 0.181 0.291 0.364 0.110 0.344   0.50   1.61   7.20  12.40   4.44   0.53 
 45- 67 0.096 0.169 0.404 0.073 0.290   0.27   1.51   7.00  10.67   4.47   0.05 
 67- 90 0.096 0.169 0.404 0.073 0.195   0.27   1.51   7.00   7.63   4.53   0.05 
                                                                                
TOT- 90  13.3  21.7  34.0   8.4  25.6  <--cm   -  kg/ha-->  151.4   62.4  51964 
SOIL ALBEDO    : 0.09      EVAPORATION LIMIT : 6.00         MIN. FACTOR  : 1.00 
RUNOFF CURVE # :76.00      DRAINAGE RATE     : 0.60         FERT. FACTOR : 1.00 
                                                                                
 Maize      CULTIVAR :CI0004-DK7088             ECOTYPE :IB0001                 
 P1     : 229.00  P2     : 0.3000  P5     : 971.00                              
 G2     : 957.00  G3     :  7.500  PHINT  : 45.000                              


*SIMULATED CROP AND SOIL STATUS AT MAIN DEVELOPMENT STAGES

 RUN NO.     1     P04/02                  

        CROP GROWTH     BIOMASS         LEAF   CROP N     STRESS      STRESS                                           
   DATE  AGE STAGE        kg/ha    LAI   NUM  kg/ha  %   H2O  Nitr Phos1 Phos2  RSTG                                   
 ------  --- ----------   -----  -----  ----  ---  ---  ----  ----  ----  ----  ----                                   
  3 MAR    0 Start Sim        0   0.00   0.0    0  0.0  0.00  0.00  0.00  0.00     7
  2 APR    0 Sowing           0   0.00   0.0    0  0.0  0.00  0.00  0.00  0.00     8
  3 APR    1 Germinate        0   0.00   0.0    0  0.0  0.00  0.00  0.00  0.00     9
  8 APR    6 Emergence       25   0.00   2.1    1  4.4  0.00  0.01  0.00  0.00     1
 20 APR   18 End Juveni     104   0.22   7.5    4  3.7  0.00  0.00  0.00  0.00     2
 26 APR   24 Floral Ini     217   0.42   9.7    8  3.6  0.00  0.00  0.00  0.00     3
 31 MAY   59 75% Silkin    5936   3.32  20.2  120  2.0  0.00  0.00  0.00  0.00     4
 11 JUN   70 Beg Gr Fil    7967   3.14  20.2  120  1.5  0.00  0.00  0.00  0.00     5
 25 JUL  114 End Gr Fil   13767   1.34  20.2  172  1.2  0.38  0.00  0.00  0.00     6
 28 JUL  117 Maturity     13767   1.34  20.2  172  1.2  0.92  0.00  0.00  0.00    10
 28 JUL  117 Harvest      13767   1.34  20.2  172  1.2  0.00  0.00  0.00  0.00    10


*MAIN GROWTH AND DEVELOPMENT VARIABLES

@     VARIABLE                                         SIMULATED     MEASURED
      --------                                         ---------     --------
      Anthesis day (dap)                                      59          -99
      Physiological maturity day (dap)                       117          -99
      Yield at harvest maturity (kg [dm]/ha)                6819          -99
      Number at maturity (no/m2)                            2497          -99
      Unit wt at maturity (g [dm]/unit)                   0.2732          -99
      Number at maturity (no/unit)                         402.7          -99
      Tops weight at maturity (kg [dm]/ha)                 13767          -99
      By-product produced (stalk) at maturity (kg[dm]/ha    7003          -99
      Leaf area index, maximum                              3.49          -99
      Harvest index at maturity                            0.495          -99
      Grain N at maturity (kg/ha)                            120          -99
      Tops N at maturity (kg/ha)                             172          -99
      Stem N at maturity (kg/ha)                              52          -99
      Grain N at maturity (%)                                1.8          -99
      Tops weight at anthesis (kg [dm]/ha)                  5792          -99
      Tops N at anthesis (kg/ha)                             120          -99
      Leaf number per stem at maturity                     20.25          -99
      Emergence day (dap)                                      6          -99


*ENVIRONMENTAL AND STRESS FACTORS

 |-----Development Phase------|--------------------------------------Environment--------------------------------------|-----------------Stress-----------------|
                              |---------------Average--------------|-----Cumulative-----|--------Count of days--------|          (0=Min, 1=Max Stress)         |
                         Time  Temp  Temp  Temp Solar Photop                Evapo    Pot TMIN TMIN TMAX TMAX TMAX RAIN|----Water----|---Nitrogen--|-Phosphorus-|
                         Span   Max   Min  Mean   Rad  [day]    CO2   Rain  Trans     ET   <    <    >    >    >    >   Photo         Photo         Photo
                         days    邂    邂    邂 MJ/m2     hr    ppm     mm     mm     mm  0邂  2邂 30邂 32邂 34邂  0mm  synth Growth  synth Growth  synth Growth
----------------------------------------------------------------------------------------------------------------------------------------------------------------
 Emergence-End Juvenile    12  31.5  19.8  25.7  15.4  21.85  363.4   50.0   27.6   52.2    0    0   10    5    0    5  0.000  0.000  0.002  0.004  0.000  0.000
 End Juvenil-Floral Init    6  27.6  19.1  23.4  13.0  24.00  363.4   36.0   20.7   20.8    0    0    1    0    0    4  0.000  0.000  0.000  0.001  0.000  0.000
 Floral Init-End Lf Grow   35  30.5  18.9  24.7  15.4  24.00  363.5  110.0  121.8  134.0    0    0   21    7    0   11  0.000  0.000  0.000  0.000  0.000  0.000
 End Lf Grth-Beg Grn Fil   11  28.0  18.8  23.4  13.1  24.00  363.5  117.0   33.5   33.6    0    0    2    0    0    6  0.000  0.000  0.000  0.000  0.000  0.000
 Grain Filling Phase       44  31.6  18.2  24.9  17.3  24.00  363.7   38.0  123.5  185.3    0    0   33   12    6    8  0.311  0.357  0.000  0.000  0.000  0.000


 Planting to Harvest      117  30.7  18.7  24.7  15.8  23.41  363.5  360.0  335.2  464.7    0    0   74   29    7   35  0.140  0.158  0.000  0.000  0.000  0.000
----------------------------------------------------------------------------------------------------------------------------------------------------------------


*Resource Productivity
 Growing season length: 117 days 

 Precipitation during growing season       360.0 mm[rain]
   Dry Matter Productivity                  3.82 kg[DM]/m3[rain]          =   38.2 kg[DM]/ha per mm[rain]
   Yield Productivity                       1.89 kg[grain yield]/m3[rain] =   18.9 kg[yield]/ha per mm[rain]

 Evapotranspiration during growing season  335.2 mm[ET]
   Dry Matter Productivity                  4.11 kg[DM]/m3[ET]            =   41.1 kg[DM]/ha per mm[ET]
   Yield Productivity                       2.03 kg[grain yield]/m3[ET]   =   20.3 kg[yield]/ha per mm[ET]

 Transpiration during growing season       224.8 mm[EP]
   Dry Matter Productivity                  6.12 kg[DM]/m3[EP]            =   61.2 kg[DM]/ha per mm[EP]
   Yield Productivity                       3.03 kg[grain yield]/m3[EP]   =   30.3 kg[yield]/ha per mm[EP]

 N applied during growing season            161. kg[N applied]/ha
   Dry Matter Productivity                  85.5 kg[DM]/kg[N applied]
   Yield Productivity                       42.4 kg[yield]/kg[N applied]

 N uptake during growing season              188 kg[N uptake]/ha
   Dry Matter Productivity                  73.2 kg[DM]/kg[N uptake]
   Yield Productivity                       36.3 kg[yield]/kg[N uptake]

--------------------------------------------------------------------------------------------------------------

                     Maize YIELD :     6819 kg/ha    [Dry weight] 

**************************************************************************************************************

*DSSAT Cropping System Model Ver. 4.6.1.000 -release      OCT 02, 2017; 13:30:47
                                                                                
*RUN   2        : P04/07                    MZCER046 ANBU1997    2              
 MODEL          : MZCER046 - Maize                                              
 EXPERIMENT     : ANBU1997 MZ  Analisis a침os de bajo rendimiento Buga          
 DATA PATH      : C:\DSSAT46\maize\                                             
 TREATMENT  2   : P04/07                    MZCER046                            
                                                                                
                                                                                
 CROP           : Maize            CULTIVAR : DK7088           ECOTYPE :IB0001  
 STARTING DATE  : MAR  8 1997                                                   
 PLANTING DATE  : APR  7 1997        PLANTS/m2 :  6.2     ROW SPACING :  80.cm  
 WEATHER        : CUNI   1997                                                   
 SOIL           : CCBUGA2017     TEXTURE : CL    -   Suelo Buga MADR Fase I     
 SOIL INITIAL C : DEPTH: 90cm EXTR. H2O: 83.9mm  NO3:151.4kg/ha  NH4: 62.4kg/ha 
 WATER BALANCE  : RAINFED                                                       
 IRRIGATION     : NOT IRRIGATED                                                 
 NITROGEN BAL.  : SOIL-N & N-UPTAKE SIMULATION; NO N-FIXATION                   
 N-FERTILIZER   :      161 kg/ha IN     5 APPLICATIONS                          
 RESIDUE/MANURE : INITIAL :     0 kg/ha ;       0 kg/ha IN     0 APPLICATIONS   
 ENVIRONM. OPT. : DAYL=    0.00  SRAD=    0.00  TMAX=    0.00  TMIN=    0.00    
                  RAIN=    0.00  CO2 =    0.00  DEW =    0.00  WIND=    0.00    
 SIMULATION OPT : WATER   :Y  NITROGEN:Y  N-FIX:N  PHOSPH :N  PESTS  :N         
                  PHOTO   :C  ET      :R  INFIL:S  HYDROL :R  SOM    :G         
                  CO2 363ppm  NSWIT   :1  EVAP :S  SOIL   :2  STEMP  :D         
 MANAGEMENT OPT : PLANTING:R  IRRIG   :N  FERT :D  RESIDUE:R  HARVEST:M         
                  WEATHER :M  TILLAGE :N                                        
                                                                                
*SUMMARY OF SOIL AND GENETIC INPUT PARAMETERS                                   
                                                                                
   SOIL LOWER UPPER   SAT  EXTR  INIT   ROOT   BULK     pH    NO3    NH4    ORG 
  DEPTH LIMIT LIMIT    SW    SW    SW   DIST   DENS                          C  
   cm   cm3/cm3    cm3/cm3    cm3/cm3         g/cm3         ugN/g  ugN/g     %  
------------------------------------------------------------------------------- 
  0-  5 0.215 0.331 0.341 0.116 0.319   1.00   1.68   6.70  11.90   4.21   0.75 
  5- 15 0.215 0.331 0.341 0.116 0.319   1.00   1.68   6.70  11.90   4.21   0.75 
 15- 25 0.215 0.331 0.341 0.116 0.319   1.00   1.68   6.70  11.90   4.21   0.75 
 25- 35 0.181 0.291 0.364 0.110 0.331   0.50   1.61   7.20  12.15   4.32   0.53 
 35- 45 0.181 0.291 0.364 0.110 0.344   0.50   1.61   7.20  12.40   4.44   0.53 
 45- 67 0.096 0.169 0.404 0.073 0.290   0.27   1.51   7.00  10.67   4.47   0.05 
 67- 90 0.096 0.169 0.404 0.073 0.195   0.27   1.51   7.00   7.63   4.53   0.05 
                                                                                
TOT- 90  13.3  21.7  34.0   8.4  25.6  <--cm   -  kg/ha-->  151.4   62.4  51964 
SOIL ALBEDO    : 0.09      EVAPORATION LIMIT : 6.00         MIN. FACTOR  : 1.00 
RUNOFF CURVE # :76.00      DRAINAGE RATE     : 0.60         FERT. FACTOR : 1.00 
                                                                                
 Maize      CULTIVAR :CI0004-DK7088             ECOTYPE :IB0001                 
 P1     : 229.00  P2     : 0.3000  P5     : 971.00                              
 G2     : 957.00  G3     :  7.500  PHINT  : 45.000                              


*SIMULATED CROP AND SOIL STATUS AT MAIN DEVELOPMENT STAGES

 RUN NO.     2     P04/07                  

        CROP GROWTH     BIOMASS         LEAF   CROP N     STRESS      STRESS                                           
   DATE  AGE STAGE        kg/ha    LAI   NUM  kg/ha  %   H2O  Nitr Phos1 Phos2  RSTG                                   
 ------  --- ----------   -----  -----  ----  ---  ---  ----  ----  ----  ----  ----                                   
  8 MAR    0 Start Sim        0   0.00   0.0    0  0.0  0.00  0.00  0.00  0.00     7
  7 APR    0 Sowing           0   0.00   0.0    0  0.0  0.00  0.00  0.00  0.00     8
  8 APR    1 Germinate        0   0.00   0.0    0  0.0  0.00  0.00  0.00  0.00     9
 13 APR    6 Emergence       25   0.00   2.1    1  4.4  0.00  0.01  0.00  0.00     1
 26 APR   19 End Juveni      76   0.17   7.7    3  3.5  0.00  0.00  0.00  0.00     2
  3 MAY   26 Floral Ini     339   0.61  10.4   12  3.6  0.00  0.00  0.00  0.00     3
 10 JUN   64 75% Silkin    6350   3.58  21.9  129  2.0  0.00  0.00  0.00  0.00     4
 21 JUN   75 Beg Gr Fil    8594   3.38  21.9  130  1.5  0.00  0.00  0.00  0.00     5
  4 AUG  119 End Gr Fil   14262   1.32  21.9  178  1.2  0.44  0.00  0.00  0.00     6
  6 AUG  121 Maturity     14262   1.32  21.9  178  1.2  0.42  0.00  0.00  0.00    10
  6 AUG  121 Harvest      14262   1.32  21.9  178  1.2  0.00  0.00  0.00  0.00    10


*MAIN GROWTH AND DEVELOPMENT VARIABLES

@     VARIABLE                                         SIMULATED     MEASURED
      --------                                         ---------     --------
      Anthesis day (dap)                                      64          -99
      Physiological maturity day (dap)                       121          -99
      Yield at harvest maturity (kg [dm]/ha)                7218          -99
      Number at maturity (no/m2)                            2802          -99
      Unit wt at maturity (g [dm]/unit)                   0.2576          -99
      Number at maturity (no/unit)                         452.0          -99
      Tops weight at maturity (kg [dm]/ha)                 14262          -99
      By-product produced (stalk) at maturity (kg[dm]/ha    7106          -99
      Leaf area index, maximum                              3.76          -99
      Harvest index at maturity                            0.506          -99
      Grain N at maturity (kg/ha)                            128          -99
      Tops N at maturity (kg/ha)                             178          -99
      Stem N at maturity (kg/ha)                              50          -99
      Grain N at maturity (%)                                1.8          -99
      Tops weight at anthesis (kg [dm]/ha)                  6093          -99
      Tops N at anthesis (kg/ha)                             125          -99
      Leaf number per stem at maturity                     21.91          -99
      Emergence day (dap)                                      6          -99


*ENVIRONMENTAL AND STRESS FACTORS

 |-----Development Phase------|--------------------------------------Environment--------------------------------------|-----------------Stress-----------------|
                              |---------------Average--------------|-----Cumulative-----|--------Count of days--------|          (0=Min, 1=Max Stress)         |
                         Time  Temp  Temp  Temp Solar Photop                Evapo    Pot TMIN TMIN TMAX TMAX TMAX RAIN|----Water----|---Nitrogen--|-Phosphorus-|
                         Span   Max   Min  Mean   Rad  [day]    CO2   Rain  Trans     ET   <    <    >    >    >    >   Photo         Photo         Photo
                         days    邂    邂    邂 MJ/m2     hr    ppm     mm     mm     mm  0邂  2邂 30邂 32邂 34邂  0mm  synth Growth  synth Growth  synth Growth
----------------------------------------------------------------------------------------------------------------------------------------------------------------
 Emergence-End Juvenile    13  29.8  19.6  24.7  14.5  23.76  363.4   79.0   41.6   52.5    0    0    8    3    0    7  0.000  0.000  0.002  0.004  0.000  0.000
 End Juvenil-Floral Init    7  31.1  18.7  24.9  17.5  24.00  363.4   26.0   22.7   33.4    0    0    4    2    0    1  0.000  0.000  0.001  0.002  0.000  0.000
 Floral Init-End Lf Grow   38  29.7  18.9  24.3  14.4  24.00  363.5  201.0  122.5  133.2    0    0   19    5    0   16  0.000  0.000  0.000  0.000  0.000  0.000
 End Lf Grth-Beg Grn Fil   11  29.7  18.6  24.2  14.7  24.00  363.6   10.0   37.7   37.8    0    0    4    0    0    2  0.000  0.000  0.000  0.000  0.000  0.000
 Grain Filling Phase       44  32.1  18.1  25.1  17.8  24.00  363.7   78.0  118.2  192.5    0    0   39   17    7    9  0.397  0.445  0.000  0.000  0.000  0.000


 Planting to Harvest      121  30.8  18.6  24.7  16.0  23.74  363.6  401.0  357.2  485.3    0    0   79   31    8   37  0.146  0.165  0.000  0.001  0.000  0.000
----------------------------------------------------------------------------------------------------------------------------------------------------------------


*Resource Productivity
 Growing season length: 121 days 

 Precipitation during growing season       401.0 mm[rain]
   Dry Matter Productivity                  3.56 kg[DM]/m3[rain]          =   35.6 kg[DM]/ha per mm[rain]
   Yield Productivity                       1.80 kg[grain yield]/m3[rain] =   18.0 kg[yield]/ha per mm[rain]

 Evapotranspiration during growing season  357.2 mm[ET]
   Dry Matter Productivity                  3.99 kg[DM]/m3[ET]            =   39.9 kg[DM]/ha per mm[ET]
   Yield Productivity                       2.02 kg[grain yield]/m3[ET]   =   20.2 kg[yield]/ha per mm[ET]

 Transpiration during growing season       234.8 mm[EP]
   Dry Matter Productivity                  6.07 kg[DM]/m3[EP]            =   60.7 kg[DM]/ha per mm[EP]
   Yield Productivity                       3.07 kg[grain yield]/m3[EP]   =   30.7 kg[yield]/ha per mm[EP]

 N applied during growing season            161. kg[N applied]/ha
   Dry Matter Productivity                  88.6 kg[DM]/kg[N applied]
   Yield Productivity                       44.8 kg[yield]/kg[N applied]

 N uptake during growing season              195 kg[N uptake]/ha
   Dry Matter Productivity                  73.1 kg[DM]/kg[N uptake]
   Yield Productivity                       37.0 kg[yield]/kg[N uptake]

--------------------------------------------------------------------------------------------------------------

                     Maize YIELD :     7218 kg/ha    [Dry weight] 

**************************************************************************************************************

*DSSAT Cropping System Model Ver. 4.6.1.000 -release      OCT 02, 2017; 13:30:47
                                                                                
*RUN   3        : P04/12                    MZCER046 ANBU1997    3              
 MODEL          : MZCER046 - Maize                                              
 EXPERIMENT     : ANBU1997 MZ  Analisis a침os de bajo rendimiento Buga          
 DATA PATH      : C:\DSSAT46\maize\                                             
 TREATMENT  3   : P04/12                    MZCER046                            
                                                                                
                                                                                
 CROP           : Maize            CULTIVAR : DK7088           ECOTYPE :IB0001  
 STARTING DATE  : MAR 13 1997                                                   
 PLANTING DATE  : APR 12 1997        PLANTS/m2 :  6.2     ROW SPACING :  80.cm  
 WEATHER        : CUNI   1997                                                   
 SOIL           : CCBUGA2017     TEXTURE : CL    -   Suelo Buga MADR Fase I     
 SOIL INITIAL C : DEPTH: 90cm EXTR. H2O: 83.9mm  NO3:151.4kg/ha  NH4: 62.4kg/ha 
 WATER BALANCE  : RAINFED                                                       
 IRRIGATION     : NOT IRRIGATED                                                 
 NITROGEN BAL.  : SOIL-N & N-UPTAKE SIMULATION; NO N-FIXATION                   
 N-FERTILIZER   :      161 kg/ha IN     5 APPLICATIONS                          
 RESIDUE/MANURE : INITIAL :     0 kg/ha ;       0 kg/ha IN     0 APPLICATIONS   
 ENVIRONM. OPT. : DAYL=    0.00  SRAD=    0.00  TMAX=    0.00  TMIN=    0.00    
                  RAIN=    0.00  CO2 =    0.00  DEW =    0.00  WIND=    0.00    
 SIMULATION OPT : WATER   :Y  NITROGEN:Y  N-FIX:N  PHOSPH :N  PESTS  :N         
                  PHOTO   :C  ET      :R  INFIL:S  HYDROL :R  SOM    :G         
                  CO2 363ppm  NSWIT   :1  EVAP :S  SOIL   :2  STEMP  :D         
 MANAGEMENT OPT : PLANTING:R  IRRIG   :N  FERT :D  RESIDUE:R  HARVEST:M         
                  WEATHER :M  TILLAGE :N                                        
                                                                                
*SUMMARY OF SOIL AND GENETIC INPUT PARAMETERS                                   
                                                                                
   SOIL LOWER UPPER   SAT  EXTR  INIT   ROOT   BULK     pH    NO3    NH4    ORG 
  DEPTH LIMIT LIMIT    SW    SW    SW   DIST   DENS                          C  
   cm   cm3/cm3    cm3/cm3    cm3/cm3         g/cm3         ugN/g  ugN/g     %  
------------------------------------------------------------------------------- 
  0-  5 0.215 0.331 0.341 0.116 0.319   1.00   1.68   6.70  11.90   4.21   0.75 
  5- 15 0.215 0.331 0.341 0.116 0.319   1.00   1.68   6.70  11.90   4.21   0.75 
 15- 25 0.215 0.331 0.341 0.116 0.319   1.00   1.68   6.70  11.90   4.21   0.75 
 25- 35 0.181 0.291 0.364 0.110 0.331   0.50   1.61   7.20  12.15   4.32   0.53 
 35- 45 0.181 0.291 0.364 0.110 0.344   0.50   1.61   7.20  12.40   4.44   0.53 
 45- 67 0.096 0.169 0.404 0.073 0.290   0.27   1.51   7.00  10.67   4.47   0.05 
 67- 90 0.096 0.169 0.404 0.073 0.195   0.27   1.51   7.00   7.63   4.53   0.05 
                                                                                
TOT- 90  13.3  21.7  34.0   8.4  25.6  <--cm   -  kg/ha-->  151.4   62.4  51964 
SOIL ALBEDO    : 0.09      EVAPORATION LIMIT : 6.00         MIN. FACTOR  : 1.00 
RUNOFF CURVE # :76.00      DRAINAGE RATE     : 0.60         FERT. FACTOR : 1.00 
                                                                                
 Maize      CULTIVAR :CI0004-DK7088             ECOTYPE :IB0001                 
 P1     : 229.00  P2     : 0.3000  P5     : 971.00                              
 G2     : 957.00  G3     :  7.500  PHINT  : 45.000                              


*SIMULATED CROP AND SOIL STATUS AT MAIN DEVELOPMENT STAGES

 RUN NO.     3     P04/12                  

        CROP GROWTH     BIOMASS         LEAF   CROP N     STRESS      STRESS                                           
   DATE  AGE STAGE        kg/ha    LAI   NUM  kg/ha  %   H2O  Nitr Phos1 Phos2  RSTG                                   
 ------  --- ----------   -----  -----  ----  ---  ---  ----  ----  ----  ----  ----                                   
 13 MAR    0 Start Sim        0   0.00   0.0    0  0.0  0.00  0.00  0.00  0.00     7
 12 APR    0 Sowing           0   0.00   0.0    0  0.0  0.00  0.00  0.00  0.00     8
 13 APR    1 Germinate        0   0.00   0.0    0  0.0  0.00  0.00  0.00  0.00     9
 18 APR    6 Emergence       25   0.00   2.1    1  4.4  0.00  0.01  0.00  0.00     1
  1 MAY   19 End Juveni      95   0.20   7.6    3  3.2  0.00  0.00  0.00  0.00     2
  8 MAY   26 Floral Ini     379   0.66  10.4   14  3.6  0.00  0.00  0.00  0.00     3
 15 JUN   64 75% Silkin    6194   3.54  21.9  123  2.0  0.00  0.00  0.00  0.00     4
 26 JUN   75 Beg Gr Fil    8416   3.34  21.9  123  1.5  0.00  0.00  0.00  0.00     5
  8 AUG  118 End Gr Fil   13735   1.26  21.9  167  1.2  0.52  0.00  0.00  0.00     6
 11 AUG  121 Maturity     13735   1.26  21.9  167  1.2  0.78  0.00  0.00  0.00    10
 11 AUG  121 Harvest      13735   1.26  21.9  167  1.2  0.00  0.00  0.00  0.00    10


*MAIN GROWTH AND DEVELOPMENT VARIABLES

@     VARIABLE                                         SIMULATED     MEASURED
      --------                                         ---------     --------
      Anthesis day (dap)                                      64          -99
      Physiological maturity day (dap)                       121          -99
      Yield at harvest maturity (kg [dm]/ha)                6801          -99
      Number at maturity (no/m2)                            2816          -99
      Unit wt at maturity (g [dm]/unit)                   0.2415          -99
      Number at maturity (no/unit)                         454.1          -99
      Tops weight at maturity (kg [dm]/ha)                 13735          -99
      By-product produced (stalk) at maturity (kg[dm]/ha    6995          -99
      Leaf area index, maximum                              3.71          -99
      Harvest index at maturity                            0.495          -99
      Grain N at maturity (kg/ha)                            121          -99
      Tops N at maturity (kg/ha)                             167          -99
      Stem N at maturity (kg/ha)                              46          -99
      Grain N at maturity (%)                                1.8          -99
      Tops weight at anthesis (kg [dm]/ha)                  5922          -99
      Tops N at anthesis (kg/ha)                             120          -99
      Leaf number per stem at maturity                     21.91          -99
      Emergence day (dap)                                      6          -99


*ENVIRONMENTAL AND STRESS FACTORS

 |-----Development Phase------|--------------------------------------Environment--------------------------------------|-----------------Stress-----------------|
                              |---------------Average--------------|-----Cumulative-----|--------Count of days--------|          (0=Min, 1=Max Stress)         |
                         Time  Temp  Temp  Temp Solar Photop                Evapo    Pot TMIN TMIN TMAX TMAX TMAX RAIN|----Water----|---Nitrogen--|-Phosphorus-|
                         Span   Max   Min  Mean   Rad  [day]    CO2   Rain  Trans     ET   <    <    >    >    >    >   Photo         Photo         Photo
                         days    邂    邂    邂 MJ/m2     hr    ppm     mm     mm     mm  0邂  2邂 30邂 32邂 34邂  0mm  synth Growth  synth Growth  synth Growth
----------------------------------------------------------------------------------------------------------------------------------------------------------------
 Emergence-End Juvenile    13  29.7  19.3  24.5  14.8  24.00  363.4   71.0   41.9   53.5    0    0    5    3    0    7  0.000  0.000  0.002  0.004  0.000  0.000
 End Juvenil-Floral Init    7  31.3  18.2  24.8  16.4  24.00  363.4   14.0   12.4   31.0    0    0    6    2    0    2  0.000  0.000  0.001  0.001  0.000  0.000
 Floral Init-End Lf Grow   38  29.5  18.9  24.2  14.2  24.00  363.5  189.0  126.2  131.3    0    0   16    3    0   15  0.000  0.000  0.000  0.000  0.000  0.000
 End Lf Grth-Beg Grn Fil   11  30.5  18.5  24.5  14.8  24.00  363.7   13.0   38.4   38.5    0    0    6    1    0    3  0.000  0.000  0.000  0.000  0.000  0.000
 Grain Filling Phase       43  32.4  18.1  25.3  18.2  24.00  363.7   73.0  111.5  194.2    0    0   40   20    9    7  0.434  0.497  0.000  0.000  0.000  0.000


 Planting to Harvest      121  30.9  18.6  24.8  16.1  23.95  363.6  394.0  353.8  492.0    0    0   82   34   10   35  0.170  0.195  0.000  0.000  0.000  0.000
----------------------------------------------------------------------------------------------------------------------------------------------------------------


*Resource Productivity
 Growing season length: 121 days 

 Precipitation during growing season       394.0 mm[rain]
   Dry Matter Productivity                  3.49 kg[DM]/m3[rain]          =   34.9 kg[DM]/ha per mm[rain]
   Yield Productivity                       1.73 kg[grain yield]/m3[rain] =   17.3 kg[yield]/ha per mm[rain]

 Evapotranspiration during growing season  353.8 mm[ET]
   Dry Matter Productivity                  3.88 kg[DM]/m3[ET]            =   38.8 kg[DM]/ha per mm[ET]
   Yield Productivity                       1.92 kg[grain yield]/m3[ET]   =   19.2 kg[yield]/ha per mm[ET]

 Transpiration during growing season       222.5 mm[EP]
   Dry Matter Productivity                  6.17 kg[DM]/m3[EP]            =   61.7 kg[DM]/ha per mm[EP]
   Yield Productivity                       3.06 kg[grain yield]/m3[EP]   =   30.6 kg[yield]/ha per mm[EP]

 N applied during growing season            161. kg[N applied]/ha
   Dry Matter Productivity                  85.3 kg[DM]/kg[N applied]
   Yield Productivity                       42.2 kg[yield]/kg[N applied]

 N uptake during growing season              183 kg[N uptake]/ha
   Dry Matter Productivity                  75.1 kg[DM]/kg[N uptake]
   Yield Productivity                       37.2 kg[yield]/kg[N uptake]

--------------------------------------------------------------------------------------------------------------

                     Maize YIELD :     6801 kg/ha    [Dry weight] 

**************************************************************************************************************

*DSSAT Cropping System Model Ver. 4.6.1.000 -release      OCT 02, 2017; 13:30:47
                                                                                
*RUN   4        : P04/17                    MZCER046 ANBU1997    4              
 MODEL          : MZCER046 - Maize                                              
 EXPERIMENT     : ANBU1997 MZ  Analisis a침os de bajo rendimiento Buga          
 DATA PATH      : C:\DSSAT46\maize\                                             
 TREATMENT  4   : P04/17                    MZCER046                            
                                                                                
                                                                                
 CROP           : Maize            CULTIVAR : DK7088           ECOTYPE :IB0001  
 STARTING DATE  : MAR 18 1997                                                   
 PLANTING DATE  : APR 17 1997        PLANTS/m2 :  6.2     ROW SPACING :  80.cm  
 WEATHER        : CUNI   1997                                                   
 SOIL           : CCBUGA2017     TEXTURE : CL    -   Suelo Buga MADR Fase I     
 SOIL INITIAL C : DEPTH: 90cm EXTR. H2O: 83.9mm  NO3:151.4kg/ha  NH4: 62.4kg/ha 
 WATER BALANCE  : RAINFED                                                       
 IRRIGATION     : NOT IRRIGATED                                                 
 NITROGEN BAL.  : SOIL-N & N-UPTAKE SIMULATION; NO N-FIXATION                   
 N-FERTILIZER   :      161 kg/ha IN     5 APPLICATIONS                          
 RESIDUE/MANURE : INITIAL :     0 kg/ha ;       0 kg/ha IN     0 APPLICATIONS   
 ENVIRONM. OPT. : DAYL=    0.00  SRAD=    0.00  TMAX=    0.00  TMIN=    0.00    
                  RAIN=    0.00  CO2 =    0.00  DEW =    0.00  WIND=    0.00    
 SIMULATION OPT : WATER   :Y  NITROGEN:Y  N-FIX:N  PHOSPH :N  PESTS  :N         
                  PHOTO   :C  ET      :R  INFIL:S  HYDROL :R  SOM    :G         
                  CO2 363ppm  NSWIT   :1  EVAP :S  SOIL   :2  STEMP  :D         
 MANAGEMENT OPT : PLANTING:R  IRRIG   :N  FERT :D  RESIDUE:R  HARVEST:M         
                  WEATHER :M  TILLAGE :N                                        
                                                                                
*SUMMARY OF SOIL AND GENETIC INPUT PARAMETERS                                   
                                                                                
   SOIL LOWER UPPER   SAT  EXTR  INIT   ROOT   BULK     pH    NO3    NH4    ORG 
  DEPTH LIMIT LIMIT    SW    SW    SW   DIST   DENS                          C  
   cm   cm3/cm3    cm3/cm3    cm3/cm3         g/cm3         ugN/g  ugN/g     %  
------------------------------------------------------------------------------- 
  0-  5 0.215 0.331 0.341 0.116 0.319   1.00   1.68   6.70  11.90   4.21   0.75 
  5- 15 0.215 0.331 0.341 0.116 0.319   1.00   1.68   6.70  11.90   4.21   0.75 
 15- 25 0.215 0.331 0.341 0.116 0.319   1.00   1.68   6.70  11.90   4.21   0.75 
 25- 35 0.181 0.291 0.364 0.110 0.331   0.50   1.61   7.20  12.15   4.32   0.53 
 35- 45 0.181 0.291 0.364 0.110 0.344   0.50   1.61   7.20  12.40   4.44   0.53 
 45- 67 0.096 0.169 0.404 0.073 0.290   0.27   1.51   7.00  10.67   4.47   0.05 
 67- 90 0.096 0.169 0.404 0.073 0.195   0.27   1.51   7.00   7.63   4.53   0.05 
                                                                                
TOT- 90  13.3  21.7  34.0   8.4  25.6  <--cm   -  kg/ha-->  151.4   62.4  51964 
SOIL ALBEDO    : 0.09      EVAPORATION LIMIT : 6.00         MIN. FACTOR  : 1.00 
RUNOFF CURVE # :76.00      DRAINAGE RATE     : 0.60         FERT. FACTOR : 1.00 
                                                                                
 Maize      CULTIVAR :CI0004-DK7088             ECOTYPE :IB0001                 
 P1     : 229.00  P2     : 0.3000  P5     : 971.00                              
 G2     : 957.00  G3     :  7.500  PHINT  : 45.000                              


*SIMULATED CROP AND SOIL STATUS AT MAIN DEVELOPMENT STAGES

 RUN NO.     4     P04/17                  

        CROP GROWTH     BIOMASS         LEAF   CROP N     STRESS      STRESS                                           
   DATE  AGE STAGE        kg/ha    LAI   NUM  kg/ha  %   H2O  Nitr Phos1 Phos2  RSTG                                   
 ------  --- ----------   -----  -----  ----  ---  ---  ----  ----  ----  ----  ----                                   
 18 MAR    0 Start Sim        0   0.00   0.0    0  0.0  0.00  0.00  0.00  0.00     7
 17 APR    0 Sowing           0   0.00   0.0    0  0.0  0.00  0.00  0.00  0.00     8
 18 APR    1 Germinate        0   0.00   0.0    0  0.0  0.00  0.00  0.00  0.00     9
 23 APR    6 Emergence       25   0.00   2.1    1  4.4  0.00  0.01  0.00  0.00     1
  6 MAY   19 End Juveni     117   0.25   7.7    4  3.3  0.00  0.00  0.00  0.00     2
 13 MAY   26 Floral Ini     315   0.57  10.4   11  3.6  0.00  0.00  0.00  0.00     3
 20 JUN   64 75% Silkin    6282   3.55  21.5  123  2.0  0.00  0.00  0.00  0.00     4
 30 JUN   74 Beg Gr Fil    8508   3.36  21.5  124  1.5  0.00  0.00  0.00  0.00     5
 13 AUG  118 End Gr Fil   13128   1.06  21.5  150  1.1  0.60  0.00  0.00  0.00     6
 15 AUG  120 Maturity     13128   1.06  21.5  150  1.1  0.91  0.00  0.00  0.00    10
 15 AUG  120 Harvest      13128   1.06  21.5  150  1.1  0.00  0.00  0.00  0.00    10


*MAIN GROWTH AND DEVELOPMENT VARIABLES

@     VARIABLE                                         SIMULATED     MEASURED
      --------                                         ---------     --------
      Anthesis day (dap)                                      64          -99
      Physiological maturity day (dap)                       120          -99
      Yield at harvest maturity (kg [dm]/ha)                5863          -99
      Number at maturity (no/m2)                            2993          -99
      Unit wt at maturity (g [dm]/unit)                   0.1959          -99
      Number at maturity (no/unit)                         482.7          -99
      Tops weight at maturity (kg [dm]/ha)                 13128          -99
      By-product produced (stalk) at maturity (kg[dm]/ha    7325          -99
      Leaf area index, maximum                              3.73          -99
      Harvest index at maturity                            0.447          -99
      Grain N at maturity (kg/ha)                            105          -99
      Tops N at maturity (kg/ha)                             150          -99
      Stem N at maturity (kg/ha)                              45          -99
      Grain N at maturity (%)                                1.8          -99
      Tops weight at anthesis (kg [dm]/ha)                  5999          -99
      Tops N at anthesis (kg/ha)                             121          -99
      Leaf number per stem at maturity                     21.52          -99
      Emergence day (dap)                                      6          -99


*ENVIRONMENTAL AND STRESS FACTORS

 |-----Development Phase------|--------------------------------------Environment--------------------------------------|-----------------Stress-----------------|
                              |---------------Average--------------|-----Cumulative-----|--------Count of days--------|          (0=Min, 1=Max Stress)         |
                         Time  Temp  Temp  Temp Solar Photop                Evapo    Pot TMIN TMIN TMAX TMAX TMAX RAIN|----Water----|---Nitrogen--|-Phosphorus-|
                         Span   Max   Min  Mean   Rad  [day]    CO2   Rain  Trans     ET   <    <    >    >    >    >   Photo         Photo         Photo
                         days    邂    邂    邂 MJ/m2     hr    ppm     mm     mm     mm  0邂  2邂 30邂 32邂 34邂  0mm  synth Growth  synth Growth  synth Growth
----------------------------------------------------------------------------------------------------------------------------------------------------------------
 Emergence-End Juvenile    13  30.5  18.5  24.5  17.3  24.00  363.4   35.0   36.7   62.4    0    0    7    4    0    3  0.000  0.000  0.002  0.006  0.000  0.000
 End Juvenil-Floral Init    7  30.4  18.9  24.7  14.9  24.00  363.4   46.0   19.3   28.2    0    0    5    1    0    4  0.000  0.000  0.000  0.001  0.000  0.000
 Floral Init-End Lf Grow   38  29.4  18.9  24.2  13.9  24.00  363.5  163.0  123.6  128.7    0    0   15    2    0   13  0.000  0.000  0.000  0.000  0.000  0.000
 End Lf Grth-Beg Grn Fil   10  30.9  18.2  24.5  15.8  24.00  363.7   22.0   37.4   37.5    0    0    7    1    0    4  0.000  0.000  0.000  0.000  0.000  0.000
 Grain Filling Phase       44  32.6  18.0  25.3  18.4  24.00  363.8   58.0  101.6  201.3    0    0   42   24   10    6  0.511  0.583  0.000  0.000  0.000  0.000


 Planting to Harvest      120  30.9  18.6  24.8  16.1  24.00  363.6  362.2  332.5  486.6    0    0   81   34   10   36  0.201  0.229  0.000  0.001  0.000  0.000
----------------------------------------------------------------------------------------------------------------------------------------------------------------


*Resource Productivity
 Growing season length: 120 days 

 Precipitation during growing season       362.2 mm[rain]
   Dry Matter Productivity                  3.62 kg[DM]/m3[rain]          =   36.2 kg[DM]/ha per mm[rain]
   Yield Productivity                       1.62 kg[grain yield]/m3[rain] =   16.2 kg[yield]/ha per mm[rain]

 Evapotranspiration during growing season  332.5 mm[ET]
   Dry Matter Productivity                  3.95 kg[DM]/m3[ET]            =   39.5 kg[DM]/ha per mm[ET]
   Yield Productivity                       1.76 kg[grain yield]/m3[ET]   =   17.6 kg[yield]/ha per mm[ET]

 Transpiration during growing season       207.8 mm[EP]
   Dry Matter Productivity                  6.32 kg[DM]/m3[EP]            =   63.2 kg[DM]/ha per mm[EP]
   Yield Productivity                       2.82 kg[grain yield]/m3[EP]   =   28.2 kg[yield]/ha per mm[EP]

 N applied during growing season            161. kg[N applied]/ha
   Dry Matter Productivity                  81.5 kg[DM]/kg[N applied]
   Yield Productivity                       36.4 kg[yield]/kg[N applied]

 N uptake during growing season              164 kg[N uptake]/ha
   Dry Matter Productivity                  80.0 kg[DM]/kg[N uptake]
   Yield Productivity                       35.8 kg[yield]/kg[N uptake]

--------------------------------------------------------------------------------------------------------------

                     Maize YIELD :     5863 kg/ha    [Dry weight] 

**************************************************************************************************************

*DSSAT Cropping System Model Ver. 4.6.1.000 -release      OCT 02, 2017; 13:30:47
                                                                                
*RUN   5        : P04/22                    MZCER046 ANBU1997    5              
 MODEL          : MZCER046 - Maize                                              
 EXPERIMENT     : ANBU1997 MZ  Analisis a침os de bajo rendimiento Buga          
 DATA PATH      : C:\DSSAT46\maize\                                             
 TREATMENT  5   : P04/22                    MZCER046                            
                                                                                
                                                                                
 CROP           : Maize            CULTIVAR : DK7088           ECOTYPE :IB0001  
 STARTING DATE  : MAR 23 1997                                                   
 PLANTING DATE  : APR 22 1997        PLANTS/m2 :  6.2     ROW SPACING :  80.cm  
 WEATHER        : CUNI   1997                                                   
 SOIL           : CCBUGA2017     TEXTURE : CL    -   Suelo Buga MADR Fase I     
 SOIL INITIAL C : DEPTH: 90cm EXTR. H2O: 83.9mm  NO3:151.4kg/ha  NH4: 62.4kg/ha 
 WATER BALANCE  : RAINFED                                                       
 IRRIGATION     : NOT IRRIGATED                                                 
 NITROGEN BAL.  : SOIL-N & N-UPTAKE SIMULATION; NO N-FIXATION                   
 N-FERTILIZER   :      161 kg/ha IN     5 APPLICATIONS                          
 RESIDUE/MANURE : INITIAL :     0 kg/ha ;       0 kg/ha IN     0 APPLICATIONS   
 ENVIRONM. OPT. : DAYL=    0.00  SRAD=    0.00  TMAX=    0.00  TMIN=    0.00    
                  RAIN=    0.00  CO2 =    0.00  DEW =    0.00  WIND=    0.00    
 SIMULATION OPT : WATER   :Y  NITROGEN:Y  N-FIX:N  PHOSPH :N  PESTS  :N         
                  PHOTO   :C  ET      :R  INFIL:S  HYDROL :R  SOM    :G         
                  CO2 363ppm  NSWIT   :1  EVAP :S  SOIL   :2  STEMP  :D         
 MANAGEMENT OPT : PLANTING:R  IRRIG   :N  FERT :D  RESIDUE:R  HARVEST:M         
                  WEATHER :M  TILLAGE :N                                        
                                                                                
*SUMMARY OF SOIL AND GENETIC INPUT PARAMETERS                                   
                                                                                
   SOIL LOWER UPPER   SAT  EXTR  INIT   ROOT   BULK     pH    NO3    NH4    ORG 
  DEPTH LIMIT LIMIT    SW    SW    SW   DIST   DENS                          C  
   cm   cm3/cm3    cm3/cm3    cm3/cm3         g/cm3         ugN/g  ugN/g     %  
------------------------------------------------------------------------------- 
  0-  5 0.215 0.331 0.341 0.116 0.319   1.00   1.68   6.70  11.90   4.21   0.75 
  5- 15 0.215 0.331 0.341 0.116 0.319   1.00   1.68   6.70  11.90   4.21   0.75 
 15- 25 0.215 0.331 0.341 0.116 0.319   1.00   1.68   6.70  11.90   4.21   0.75 
 25- 35 0.181 0.291 0.364 0.110 0.331   0.50   1.61   7.20  12.15   4.32   0.53 
 35- 45 0.181 0.291 0.364 0.110 0.344   0.50   1.61   7.20  12.40   4.44   0.53 
 45- 67 0.096 0.169 0.404 0.073 0.290   0.27   1.51   7.00  10.67   4.47   0.05 
 67- 90 0.096 0.169 0.404 0.073 0.195   0.27   1.51   7.00   7.63   4.53   0.05 
                                                                                
TOT- 90  13.3  21.7  34.0   8.4  25.6  <--cm   -  kg/ha-->  151.4   62.4  51964 
SOIL ALBEDO    : 0.09      EVAPORATION LIMIT : 6.00         MIN. FACTOR  : 1.00 
RUNOFF CURVE # :76.00      DRAINAGE RATE     : 0.60         FERT. FACTOR : 1.00 
                                                                                
 Maize      CULTIVAR :CI0004-DK7088             ECOTYPE :IB0001                 
 P1     : 229.00  P2     : 0.3000  P5     : 971.00                              
 G2     : 957.00  G3     :  7.500  PHINT  : 45.000                              


*SIMULATED CROP AND SOIL STATUS AT MAIN DEVELOPMENT STAGES

 RUN NO.     5     P04/22                  

        CROP GROWTH     BIOMASS         LEAF   CROP N     STRESS      STRESS                                           
   DATE  AGE STAGE        kg/ha    LAI   NUM  kg/ha  %   H2O  Nitr Phos1 Phos2  RSTG                                   
 ------  --- ----------   -----  -----  ----  ---  ---  ----  ----  ----  ----  ----                                   
 23 MAR    0 Start Sim        0   0.00   0.0    0  0.0  0.00  0.00  0.00  0.00     7
 22 APR    0 Sowing           0   0.00   0.0    0  0.0  0.00  0.00  0.00  0.00     8
 23 APR    1 Germinate        0   0.00   0.0    0  0.0  0.00  0.00  0.00  0.00     9
 28 APR    6 Emergence       25   0.00   2.1    1  4.4  0.00  0.01  0.00  0.00     1
 11 MAY   19 End Juveni     102   0.22   7.8    4  3.7  0.00  0.00  0.00  0.00     2
 18 MAY   26 Floral Ini     366   0.65  10.5   13  3.6  0.00  0.00  0.00  0.00     3
 25 JUN   64 75% Silkin    6702   3.74  21.9  132  2.0  0.00  0.00  0.00  0.00     4
  5 JUL   74 Beg Gr Fil    9360   3.54  21.9  132  1.4  0.05  0.00  0.00  0.00     5
 17 AUG  117 End Gr Fil   13118   0.92  21.9  143  1.1  0.70  0.00  0.00  0.00     6
 20 AUG  120 Maturity     13118   0.92  21.9  143  1.1  0.95  0.00  0.00  0.00    10
 20 AUG  120 Harvest      13118   0.92  21.9  143  1.1  0.00  0.00  0.00  0.00    10


*MAIN GROWTH AND DEVELOPMENT VARIABLES

@     VARIABLE                                         SIMULATED     MEASURED
      --------                                         ---------     --------
      Anthesis day (dap)                                      64          -99
      Physiological maturity day (dap)                       120          -99
      Yield at harvest maturity (kg [dm]/ha)                5054          -99
      Number at maturity (no/m2)                            3365          -99
      Unit wt at maturity (g [dm]/unit)                   0.1502          -99
      Number at maturity (no/unit)                         542.8          -99
      Tops weight at maturity (kg [dm]/ha)                 13118          -99
      By-product produced (stalk) at maturity (kg[dm]/ha    8126          -99
      Leaf area index, maximum                              3.92          -99
      Harvest index at maturity                            0.385          -99
      Grain N at maturity (kg/ha)                             92          -99
      Tops N at maturity (kg/ha)                             143          -99
      Stem N at maturity (kg/ha)                              52          -99
      Grain N at maturity (%)                                1.8          -99
      Tops weight at anthesis (kg [dm]/ha)                  6478          -99
      Tops N at anthesis (kg/ha)                             130          -99
      Leaf number per stem at maturity                     21.95          -99
      Emergence day (dap)                                      6          -99


*ENVIRONMENTAL AND STRESS FACTORS

 |-----Development Phase------|--------------------------------------Environment--------------------------------------|-----------------Stress-----------------|
                              |---------------Average--------------|-----Cumulative-----|--------Count of days--------|          (0=Min, 1=Max Stress)         |
                         Time  Temp  Temp  Temp Solar Photop                Evapo    Pot TMIN TMIN TMAX TMAX TMAX RAIN|----Water----|---Nitrogen--|-Phosphorus-|
                         Span   Max   Min  Mean   Rad  [day]    CO2   Rain  Trans     ET   <    <    >    >    >    >   Photo         Photo         Photo
                         days    邂    邂    邂 MJ/m2     hr    ppm     mm     mm     mm  0邂  2邂 30邂 32邂 34邂  0mm  synth Growth  synth Growth  synth Growth
----------------------------------------------------------------------------------------------------------------------------------------------------------------
 Emergence-End Juvenile    13  31.6  18.6  25.1  17.3  24.00  363.4   47.0   25.9   63.0    0    0   11    5    0    4  0.000  0.000  0.002  0.005  0.000  0.000
 End Juvenil-Floral Init    7  29.5  18.5  24.0  15.6  24.00  363.5    7.0   24.3   29.3    0    0    3    0    0    3  0.000  0.000  0.001  0.001  0.000  0.000
 Floral Init-End Lf Grow   38  29.5  18.9  24.2  13.9  24.00  363.6  161.0  119.6  127.5    0    0   15    2    0   12  0.000  0.000  0.000  0.000  0.000  0.000
 End Lf Grth-Beg Grn Fil   10  30.9  17.6  24.3  17.8  24.00  363.7   21.0   41.7   41.8    0    0    8    1    0    4  0.000  0.010  0.000  0.000  0.000  0.000
 Grain Filling Phase       43  32.9  18.2  25.6  18.2  24.00  363.8   55.2   80.3  196.4    0    0   42   27   10    6  0.615  0.690  0.000  0.000  0.000  0.000


 Planting to Harvest      120  31.1  18.5  24.8  16.4  24.00  363.6  332.2  317.7  496.0    0    0   83   37   11   32  0.243  0.271  0.000  0.001  0.000  0.000
----------------------------------------------------------------------------------------------------------------------------------------------------------------


*Resource Productivity
 Growing season length: 120 days 

 Precipitation during growing season       332.2 mm[rain]
   Dry Matter Productivity                  3.95 kg[DM]/m3[rain]          =   39.5 kg[DM]/ha per mm[rain]
   Yield Productivity                       1.52 kg[grain yield]/m3[rain] =   15.2 kg[yield]/ha per mm[rain]

 Evapotranspiration during growing season  317.7 mm[ET]
   Dry Matter Productivity                  4.13 kg[DM]/m3[ET]            =   41.3 kg[DM]/ha per mm[ET]
   Yield Productivity                       1.59 kg[grain yield]/m3[ET]   =   15.9 kg[yield]/ha per mm[ET]

 Transpiration during growing season       194.6 mm[EP]
   Dry Matter Productivity                  6.74 kg[DM]/m3[EP]            =   67.4 kg[DM]/ha per mm[EP]
   Yield Productivity                       2.60 kg[grain yield]/m3[EP]   =   26.0 kg[yield]/ha per mm[EP]

 N applied during growing season            161. kg[N applied]/ha
   Dry Matter Productivity                  81.5 kg[DM]/kg[N applied]
   Yield Productivity                       31.4 kg[yield]/kg[N applied]

 N uptake during growing season              154 kg[N uptake]/ha
   Dry Matter Productivity                  85.2 kg[DM]/kg[N uptake]
   Yield Productivity                       32.8 kg[yield]/kg[N uptake]

--------------------------------------------------------------------------------------------------------------

                     Maize YIELD :     5054 kg/ha    [Dry weight] 

**************************************************************************************************************

*DSSAT Cropping System Model Ver. 4.6.1.000 -release      OCT 02, 2017; 13:30:47
                                                                                
*RUN   6        : P04/27                    MZCER046 ANBU1997    6              
 MODEL          : MZCER046 - Maize                                              
 EXPERIMENT     : ANBU1997 MZ  Analisis a침os de bajo rendimiento Buga          
 DATA PATH      : C:\DSSAT46\maize\                                             
 TREATMENT  6   : P04/27                    MZCER046                            
                                                                                
                                                                                
 CROP           : Maize            CULTIVAR : DK7088           ECOTYPE :IB0001  
 STARTING DATE  : MAR 28 1997                                                   
 PLANTING DATE  : APR 27 1997        PLANTS/m2 :  6.2     ROW SPACING :  80.cm  
 WEATHER        : CUNI   1997                                                   
 SOIL           : CCBUGA2017     TEXTURE : CL    -   Suelo Buga MADR Fase I     
 SOIL INITIAL C : DEPTH: 90cm EXTR. H2O: 83.9mm  NO3:151.4kg/ha  NH4: 62.4kg/ha 
 WATER BALANCE  : RAINFED                                                       
 IRRIGATION     : NOT IRRIGATED                                                 
 NITROGEN BAL.  : SOIL-N & N-UPTAKE SIMULATION; NO N-FIXATION                   
 N-FERTILIZER   :      161 kg/ha IN     5 APPLICATIONS                          
 RESIDUE/MANURE : INITIAL :     0 kg/ha ;       0 kg/ha IN     0 APPLICATIONS   
 ENVIRONM. OPT. : DAYL=    0.00  SRAD=    0.00  TMAX=    0.00  TMIN=    0.00    
                  RAIN=    0.00  CO2 =    0.00  DEW =    0.00  WIND=    0.00    
 SIMULATION OPT : WATER   :Y  NITROGEN:Y  N-FIX:N  PHOSPH :N  PESTS  :N         
                  PHOTO   :C  ET      :R  INFIL:S  HYDROL :R  SOM    :G         
                  CO2 363ppm  NSWIT   :1  EVAP :S  SOIL   :2  STEMP  :D         
 MANAGEMENT OPT : PLANTING:R  IRRIG   :N  FERT :D  RESIDUE:R  HARVEST:M         
                  WEATHER :M  TILLAGE :N                                        
                                                                                
*SUMMARY OF SOIL AND GENETIC INPUT PARAMETERS                                   
                                                                                
   SOIL LOWER UPPER   SAT  EXTR  INIT   ROOT   BULK     pH    NO3    NH4    ORG 
  DEPTH LIMIT LIMIT    SW    SW    SW   DIST   DENS                          C  
   cm   cm3/cm3    cm3/cm3    cm3/cm3         g/cm3         ugN/g  ugN/g     %  
------------------------------------------------------------------------------- 
  0-  5 0.215 0.331 0.341 0.116 0.319   1.00   1.68   6.70  11.90   4.21   0.75 
  5- 15 0.215 0.331 0.341 0.116 0.319   1.00   1.68   6.70  11.90   4.21   0.75 
 15- 25 0.215 0.331 0.341 0.116 0.319   1.00   1.68   6.70  11.90   4.21   0.75 
 25- 35 0.181 0.291 0.364 0.110 0.331   0.50   1.61   7.20  12.15   4.32   0.53 
 35- 45 0.181 0.291 0.364 0.110 0.344   0.50   1.61   7.20  12.40   4.44   0.53 
 45- 67 0.096 0.169 0.404 0.073 0.290   0.27   1.51   7.00  10.67   4.47   0.05 
 67- 90 0.096 0.169 0.404 0.073 0.195   0.27   1.51   7.00   7.63   4.53   0.05 
                                                                                
TOT- 90  13.3  21.7  34.0   8.4  25.6  <--cm   -  kg/ha-->  151.4   62.4  51964 
SOIL ALBEDO    : 0.09      EVAPORATION LIMIT : 6.00         MIN. FACTOR  : 1.00 
RUNOFF CURVE # :76.00      DRAINAGE RATE     : 0.60         FERT. FACTOR : 1.00 
                                                                                
 Maize      CULTIVAR :CI0004-DK7088             ECOTYPE :IB0001                 
 P1     : 229.00  P2     : 0.3000  P5     : 971.00                              
 G2     : 957.00  G3     :  7.500  PHINT  : 45.000                              


*SIMULATED CROP AND SOIL STATUS AT MAIN DEVELOPMENT STAGES

 RUN NO.     6     P04/27                  

        CROP GROWTH     BIOMASS         LEAF   CROP N     STRESS      STRESS                                           
   DATE  AGE STAGE        kg/ha    LAI   NUM  kg/ha  %   H2O  Nitr Phos1 Phos2  RSTG                                   
 ------  --- ----------   -----  -----  ----  ---  ---  ----  ----  ----  ----  ----                                   
 28 MAR    0 Start Sim        0   0.00   0.0    0  0.0  0.00  0.00  0.00  0.00     7
 27 APR    0 Sowing           0   0.00   0.0    0  0.0  0.00  0.00  0.00  0.00     8
 28 APR    1 Germinate        0   0.00   0.0    0  0.0  0.00  0.00  0.00  0.00     9
  3 MAY    6 Emergence       25   0.00   2.1    1  4.4  0.00  0.01  0.00  0.00     1
 16 MAY   19 End Juveni      97   0.21   7.7    3  3.3  0.00  0.00  0.00  0.00     2
 23 MAY   26 Floral Ini     375   0.66  10.4   14  3.6  0.00  0.00  0.00  0.00     3
  1 JUL   65 75% Silkin    6907   3.59  21.8  134  1.9  0.00  0.00  0.00  0.00     4
 11 JUL   75 Beg Gr Fil    8572   2.97  21.8  134  1.6  0.49  0.00  0.00  0.00     5
 23 AUG  118 End Gr Fil   11466   0.69  21.8  137  1.2  0.74  0.00  0.00  0.00     6
 25 AUG  120 Maturity     11466   0.69  21.8  137  1.2  0.95  0.00  0.00  0.00    10
 25 AUG  120 Harvest      11466   0.69  21.8  137  1.2  0.00  0.00  0.00  0.00    10


*MAIN GROWTH AND DEVELOPMENT VARIABLES

@     VARIABLE                                         SIMULATED     MEASURED
      --------                                         ---------     --------
      Anthesis day (dap)                                      65          -99
      Physiological maturity day (dap)                       120          -99
      Yield at harvest maturity (kg [dm]/ha)                4460          -99
      Number at maturity (no/m2)                            2633          -99
      Unit wt at maturity (g [dm]/unit)                   0.1694          -99
      Number at maturity (no/unit)                         424.7          -99
      Tops weight at maturity (kg [dm]/ha)                 11466          -99
      By-product produced (stalk) at maturity (kg[dm]/ha    7067          -99
      Leaf area index, maximum                              3.77          -99
      Harvest index at maturity                            0.389          -99
      Grain N at maturity (kg/ha)                             82          -99
      Tops N at maturity (kg/ha)                             137          -99
      Stem N at maturity (kg/ha)                              55          -99
      Grain N at maturity (%)                                1.8          -99
      Tops weight at anthesis (kg [dm]/ha)                  6576          -99
      Tops N at anthesis (kg/ha)                             131          -99
      Leaf number per stem at maturity                     21.84          -99
      Emergence day (dap)                                      6          -99


*ENVIRONMENTAL AND STRESS FACTORS

 |-----Development Phase------|--------------------------------------Environment--------------------------------------|-----------------Stress-----------------|
                              |---------------Average--------------|-----Cumulative-----|--------Count of days--------|          (0=Min, 1=Max Stress)         |
                         Time  Temp  Temp  Temp Solar Photop                Evapo    Pot TMIN TMIN TMAX TMAX TMAX RAIN|----Water----|---Nitrogen--|-Phosphorus-|
                         Span   Max   Min  Mean   Rad  [day]    CO2   Rain  Trans     ET   <    <    >    >    >    >   Photo         Photo         Photo
                         days    邂    邂    邂 MJ/m2     hr    ppm     mm     mm     mm  0邂  2邂 30邂 32邂 34邂  0mm  synth Growth  synth Growth  synth Growth
----------------------------------------------------------------------------------------------------------------------------------------------------------------
 Emergence-End Juvenile    13  30.6  18.7  24.6  15.7  24.00  363.4   54.0   35.2   56.9    0    0    8    3    0    7  0.000  0.000  0.002  0.004  0.000  0.000
 End Juvenil-Floral Init    7  31.2  18.8  25.0  15.1  24.00  363.5   12.0   13.2   28.7    0    0    6    1    0    1  0.000  0.000  0.001  0.002  0.000  0.000
 Floral Init-End Lf Grow   39  29.5  18.8  24.1  14.2  24.00  363.6  170.0  127.2  133.9    0    0   16    2    0   15  0.000  0.000  0.000  0.000  0.000  0.000
 End Lf Grth-Beg Grn Fil   10  31.4  18.0  24.7  18.1  24.00  363.7    0.0   33.2   43.1    0    0    8    2    0    0  0.273  0.404  0.000  0.000  0.000  0.000
 Grain Filling Phase       43  33.1  18.1  25.6  18.6  24.00  363.8   55.2   68.8  204.0    0    0   43   30   13    6  0.684  0.735  0.000  0.000  0.000  0.000


 Planting to Harvest      120  31.3  18.4  24.9  16.6  24.00  363.7  291.2  293.1  506.0    0    0   87   42   14   29  0.283  0.313  0.000  0.001  0.000  0.000
----------------------------------------------------------------------------------------------------------------------------------------------------------------


*Resource Productivity
 Growing season length: 120 days 

 Precipitation during growing season       291.2 mm[rain]
   Dry Matter Productivity                  3.94 kg[DM]/m3[rain]          =   39.4 kg[DM]/ha per mm[rain]
   Yield Productivity                       1.53 kg[grain yield]/m3[rain] =   15.3 kg[yield]/ha per mm[rain]

 Evapotranspiration during growing season  293.1 mm[ET]
   Dry Matter Productivity                  3.91 kg[DM]/m3[ET]            =   39.1 kg[DM]/ha per mm[ET]
   Yield Productivity                       1.52 kg[grain yield]/m3[ET]   =   15.2 kg[yield]/ha per mm[ET]

 Transpiration during growing season       175.1 mm[EP]
   Dry Matter Productivity                  6.55 kg[DM]/m3[EP]            =   65.5 kg[DM]/ha per mm[EP]
   Yield Productivity                       2.55 kg[grain yield]/m3[EP]   =   25.5 kg[yield]/ha per mm[EP]

 N applied during growing season            161. kg[N applied]/ha
   Dry Matter Productivity                  71.2 kg[DM]/kg[N applied]
   Yield Productivity                       27.7 kg[yield]/kg[N applied]

 N uptake during growing season              147 kg[N uptake]/ha
   Dry Matter Productivity                  78.0 kg[DM]/kg[N uptake]
   Yield Productivity                       30.3 kg[yield]/kg[N uptake]

--------------------------------------------------------------------------------------------------------------

                     Maize YIELD :     4460 kg/ha    [Dry weight] 

**************************************************************************************************************

*DSSAT Cropping System Model Ver. 4.6.1.000 -release      OCT 02, 2017; 13:30:48
                                                                                
*RUN   7        : P05/02                    MZCER046 ANBU1997    7              
 MODEL          : MZCER046 - Maize                                              
 EXPERIMENT     : ANBU1997 MZ  Analisis a침os de bajo rendimiento Buga          
 DATA PATH      : C:\DSSAT46\maize\                                             
 TREATMENT  7   : P05/02                    MZCER046                            
                                                                                
                                                                                
 CROP           : Maize            CULTIVAR : DK7088           ECOTYPE :IB0001  
 STARTING DATE  : APR  2 1997                                                   
 PLANTING DATE  : MAY  2 1997        PLANTS/m2 :  6.2     ROW SPACING :  80.cm  
 WEATHER        : CUNI   1997                                                   
 SOIL           : CCBUGA2017     TEXTURE : CL    -   Suelo Buga MADR Fase I     
 SOIL INITIAL C : DEPTH: 90cm EXTR. H2O: 83.9mm  NO3:151.4kg/ha  NH4: 62.4kg/ha 
 WATER BALANCE  : RAINFED                                                       
 IRRIGATION     : NOT IRRIGATED                                                 
 NITROGEN BAL.  : SOIL-N & N-UPTAKE SIMULATION; NO N-FIXATION                   
 N-FERTILIZER   :      161 kg/ha IN     5 APPLICATIONS                          
 RESIDUE/MANURE : INITIAL :     0 kg/ha ;       0 kg/ha IN     0 APPLICATIONS   
 ENVIRONM. OPT. : DAYL=    0.00  SRAD=    0.00  TMAX=    0.00  TMIN=    0.00    
                  RAIN=    0.00  CO2 =    0.00  DEW =    0.00  WIND=    0.00    
 SIMULATION OPT : WATER   :Y  NITROGEN:Y  N-FIX:N  PHOSPH :N  PESTS  :N         
                  PHOTO   :C  ET      :R  INFIL:S  HYDROL :R  SOM    :G         
                  CO2 363ppm  NSWIT   :1  EVAP :S  SOIL   :2  STEMP  :D         
 MANAGEMENT OPT : PLANTING:R  IRRIG   :N  FERT :D  RESIDUE:R  HARVEST:M         
                  WEATHER :M  TILLAGE :N                                        
                                                                                
*SUMMARY OF SOIL AND GENETIC INPUT PARAMETERS                                   
                                                                                
   SOIL LOWER UPPER   SAT  EXTR  INIT   ROOT   BULK     pH    NO3    NH4    ORG 
  DEPTH LIMIT LIMIT    SW    SW    SW   DIST   DENS                          C  
   cm   cm3/cm3    cm3/cm3    cm3/cm3         g/cm3         ugN/g  ugN/g     %  
------------------------------------------------------------------------------- 
  0-  5 0.215 0.331 0.341 0.116 0.319   1.00   1.68   6.70  11.90   4.21   0.75 
  5- 15 0.215 0.331 0.341 0.116 0.319   1.00   1.68   6.70  11.90   4.21   0.75 
 15- 25 0.215 0.331 0.341 0.116 0.319   1.00   1.68   6.70  11.90   4.21   0.75 
 25- 35 0.181 0.291 0.364 0.110 0.331   0.50   1.61   7.20  12.15   4.32   0.53 
 35- 45 0.181 0.291 0.364 0.110 0.344   0.50   1.61   7.20  12.40   4.44   0.53 
 45- 67 0.096 0.169 0.404 0.073 0.290   0.27   1.51   7.00  10.67   4.47   0.05 
 67- 90 0.096 0.169 0.404 0.073 0.195   0.27   1.51   7.00   7.63   4.53   0.05 
                                                                                
TOT- 90  13.3  21.7  34.0   8.4  25.6  <--cm   -  kg/ha-->  151.4   62.4  51964 
SOIL ALBEDO    : 0.09      EVAPORATION LIMIT : 6.00         MIN. FACTOR  : 1.00 
RUNOFF CURVE # :76.00      DRAINAGE RATE     : 0.60         FERT. FACTOR : 1.00 
                                                                                
 Maize      CULTIVAR :CI0004-DK7088             ECOTYPE :IB0001                 
 P1     : 229.00  P2     : 0.3000  P5     : 971.00                              
 G2     : 957.00  G3     :  7.500  PHINT  : 45.000                              


*SIMULATED CROP AND SOIL STATUS AT MAIN DEVELOPMENT STAGES

 RUN NO.     7     P05/02                  

        CROP GROWTH     BIOMASS         LEAF   CROP N     STRESS      STRESS                                           
   DATE  AGE STAGE        kg/ha    LAI   NUM  kg/ha  %   H2O  Nitr Phos1 Phos2  RSTG                                   
 ------  --- ----------   -----  -----  ----  ---  ---  ----  ----  ----  ----  ----                                   
  2 APR    0 Start Sim        0   0.00   0.0    0  0.0  0.00  0.00  0.00  0.00     7
  2 MAY    0 Sowing           0   0.00   0.0    0  0.0  0.00  0.00  0.00  0.00     8
  3 MAY    1 Germinate        0   0.00   0.0    0  0.0  0.00  0.00  0.00  0.00     9
  8 MAY    6 Emergence       25   0.00   2.1    1  4.4  0.00  0.01  0.00  0.00     1
 21 MAY   19 End Juveni     111   0.24   7.7    4  3.5  0.00  0.00  0.00  0.00     2
 28 MAY   26 Floral Ini     314   0.57  10.3   11  3.6  0.00  0.00  0.00  0.00     3
  5 JUL   64 75% Silkin    6549   3.41  21.4  129  2.0  0.02  0.00  0.00  0.00     4
 15 JUL   74 Beg Gr Fil    7097   2.44  21.4  130  1.8  0.77  0.00  0.00  0.00     5
 27 AUG  117 End Gr Fil    9278   0.55  21.4  130  1.4  0.74  0.00  0.00  0.00     6
 29 AUG  119 Maturity      9278   0.55  21.4  130  1.4  0.98  0.00  0.00  0.00    10
 29 AUG  119 Harvest       9278   0.55  21.4  130  1.4  0.00  0.00  0.00  0.00    10


*MAIN GROWTH AND DEVELOPMENT VARIABLES

@     VARIABLE                                         SIMULATED     MEASURED
      --------                                         ---------     --------
      Anthesis day (dap)                                      64          -99
      Physiological maturity day (dap)                       119          -99
      Yield at harvest maturity (kg [dm]/ha)                2838          -99
      Number at maturity (no/m2)                            1426          -99
      Unit wt at maturity (g [dm]/unit)                   0.1990          -99
      Number at maturity (no/unit)                         230.0          -99
      Tops weight at maturity (kg [dm]/ha)                  9278          -99
      By-product produced (stalk) at maturity (kg[dm]/ha    6498          -99
      Leaf area index, maximum                              3.57          -99
      Harvest index at maturity                            0.306          -99
      Grain N at maturity (kg/ha)                             52          -99
      Tops N at maturity (kg/ha)                             130          -99
      Stem N at maturity (kg/ha)                              78          -99
      Grain N at maturity (%)                                1.8          -99
      Tops weight at anthesis (kg [dm]/ha)                  6336          -99
      Tops N at anthesis (kg/ha)                             125          -99
      Leaf number per stem at maturity                     21.38          -99
      Emergence day (dap)                                      6          -99


*ENVIRONMENTAL AND STRESS FACTORS

 |-----Development Phase------|--------------------------------------Environment--------------------------------------|-----------------Stress-----------------|
                              |---------------Average--------------|-----Cumulative-----|--------Count of days--------|          (0=Min, 1=Max Stress)         |
                         Time  Temp  Temp  Temp Solar Photop                Evapo    Pot TMIN TMIN TMAX TMAX TMAX RAIN|----Water----|---Nitrogen--|-Phosphorus-|
                         Span   Max   Min  Mean   Rad  [day]    CO2   Rain  Trans     ET   <    <    >    >    >    >   Photo         Photo         Photo
                         days    邂    邂    邂 MJ/m2     hr    ppm     mm     mm     mm  0邂  2邂 30邂 32邂 34邂  0mm  synth Growth  synth Growth  synth Growth
----------------------------------------------------------------------------------------------------------------------------------------------------------------
 Emergence-End Juvenile    13  30.5  19.0  24.7  15.3  24.00  363.5   40.0   36.8   55.4    0    0    9    2    0    5  0.000  0.000  0.002  0.005  0.000  0.000
 End Juvenil-Floral Init    7  29.8  19.2  24.5  14.1  24.00  363.5   30.0   15.2   26.6    0    0    3    1    0    3  0.000  0.000  0.001  0.002  0.000  0.000
 Floral Init-End Lf Grow   38  29.6  18.4  24.0  14.9  24.00  363.6  152.0  131.2  137.9    0    0   17    1    0   13  0.001  0.009  0.000  0.000  0.000  0.000
 End Lf Grth-Beg Grn Fil   10  32.0  18.5  25.3  18.8  24.00  363.7    0.0   19.2   45.4    0    0    9    4    1    0  0.609  0.740  0.000  0.000  0.000  0.000
 Grain Filling Phase       43  33.2  18.0  25.6  18.2  24.00  363.9   56.1   64.3  201.0    0    0   43   32   13    7  0.692  0.741  0.000  0.000  0.000  0.000


 Planting to Harvest      119  31.4  18.4  24.9  16.5  24.00  363.7  292.1  273.1  502.2    0    0   88   44   15   30  0.318  0.349  0.000  0.001  0.000  0.000
----------------------------------------------------------------------------------------------------------------------------------------------------------------


*Resource Productivity
 Growing season length: 119 days 

 Precipitation during growing season       292.1 mm[rain]
   Dry Matter Productivity                  3.18 kg[DM]/m3[rain]          =   31.8 kg[DM]/ha per mm[rain]
   Yield Productivity                       0.97 kg[grain yield]/m3[rain] =    9.7 kg[yield]/ha per mm[rain]

 Evapotranspiration during growing season  273.1 mm[ET]
   Dry Matter Productivity                  3.40 kg[DM]/m3[ET]            =   34.0 kg[DM]/ha per mm[ET]
   Yield Productivity                       1.04 kg[grain yield]/m3[ET]   =   10.4 kg[yield]/ha per mm[ET]

 Transpiration during growing season       155.7 mm[EP]
   Dry Matter Productivity                  5.96 kg[DM]/m3[EP]            =   59.6 kg[DM]/ha per mm[EP]
   Yield Productivity                       1.82 kg[grain yield]/m3[EP]   =   18.2 kg[yield]/ha per mm[EP]

 N applied during growing season            161. kg[N applied]/ha
   Dry Matter Productivity                  57.6 kg[DM]/kg[N applied]
   Yield Productivity                       17.6 kg[yield]/kg[N applied]

 N uptake during growing season              142 kg[N uptake]/ha
   Dry Matter Productivity                  65.3 kg[DM]/kg[N uptake]
   Yield Productivity                       20.0 kg[yield]/kg[N uptake]

--------------------------------------------------------------------------------------------------------------

                     Maize YIELD :     2838 kg/ha    [Dry weight] 

**************************************************************************************************************

*DSSAT Cropping System Model Ver. 4.6.1.000 -release      OCT 02, 2017; 13:30:48
                                                                                
*RUN   8        : P05/07                    MZCER046 ANBU1997    8              
 MODEL          : MZCER046 - Maize                                              
 EXPERIMENT     : ANBU1997 MZ  Analisis a침os de bajo rendimiento Buga          
 DATA PATH      : C:\DSSAT46\maize\                                             
 TREATMENT  8   : P05/07                    MZCER046                            
                                                                                
                                                                                
 CROP           : Maize            CULTIVAR : DK7088           ECOTYPE :IB0001  
 STARTING DATE  : APR  7 1997                                                   
 PLANTING DATE  : MAY  7 1997        PLANTS/m2 :  6.2     ROW SPACING :  80.cm  
 WEATHER        : CUNI   1997                                                   
 SOIL           : CCBUGA2017     TEXTURE : CL    -   Suelo Buga MADR Fase I     
 SOIL INITIAL C : DEPTH: 90cm EXTR. H2O: 83.9mm  NO3:151.4kg/ha  NH4: 62.4kg/ha 
 WATER BALANCE  : RAINFED                                                       
 IRRIGATION     : NOT IRRIGATED                                                 
 NITROGEN BAL.  : SOIL-N & N-UPTAKE SIMULATION; NO N-FIXATION                   
 N-FERTILIZER   :      161 kg/ha IN     5 APPLICATIONS                          
 RESIDUE/MANURE : INITIAL :     0 kg/ha ;       0 kg/ha IN     0 APPLICATIONS   
 ENVIRONM. OPT. : DAYL=    0.00  SRAD=    0.00  TMAX=    0.00  TMIN=    0.00    
                  RAIN=    0.00  CO2 =    0.00  DEW =    0.00  WIND=    0.00    
 SIMULATION OPT : WATER   :Y  NITROGEN:Y  N-FIX:N  PHOSPH :N  PESTS  :N         
                  PHOTO   :C  ET      :R  INFIL:S  HYDROL :R  SOM    :G         
                  CO2 363ppm  NSWIT   :1  EVAP :S  SOIL   :2  STEMP  :D         
 MANAGEMENT OPT : PLANTING:R  IRRIG   :N  FERT :D  RESIDUE:R  HARVEST:M         
                  WEATHER :M  TILLAGE :N                                        
                                                                                
*SUMMARY OF SOIL AND GENETIC INPUT PARAMETERS                                   
                                                                                
   SOIL LOWER UPPER   SAT  EXTR  INIT   ROOT   BULK     pH    NO3    NH4    ORG 
  DEPTH LIMIT LIMIT    SW    SW    SW   DIST   DENS                          C  
   cm   cm3/cm3    cm3/cm3    cm3/cm3         g/cm3         ugN/g  ugN/g     %  
------------------------------------------------------------------------------- 
  0-  5 0.215 0.331 0.341 0.116 0.319   1.00   1.68   6.70  11.90   4.21   0.75 
  5- 15 0.215 0.331 0.341 0.116 0.319   1.00   1.68   6.70  11.90   4.21   0.75 
 15- 25 0.215 0.331 0.341 0.116 0.319   1.00   1.68   6.70  11.90   4.21   0.75 
 25- 35 0.181 0.291 0.364 0.110 0.331   0.50   1.61   7.20  12.15   4.32   0.53 
 35- 45 0.181 0.291 0.364 0.110 0.344   0.50   1.61   7.20  12.40   4.44   0.53 
 45- 67 0.096 0.169 0.404 0.073 0.290   0.27   1.51   7.00  10.67   4.47   0.05 
 67- 90 0.096 0.169 0.404 0.073 0.195   0.27   1.51   7.00   7.63   4.53   0.05 
                                                                                
TOT- 90  13.3  21.7  34.0   8.4  25.6  <--cm   -  kg/ha-->  151.4   62.4  51964 
SOIL ALBEDO    : 0.09      EVAPORATION LIMIT : 6.00         MIN. FACTOR  : 1.00 
RUNOFF CURVE # :76.00      DRAINAGE RATE     : 0.60         FERT. FACTOR : 1.00 
                                                                                
 Maize      CULTIVAR :CI0004-DK7088             ECOTYPE :IB0001                 
 P1     : 229.00  P2     : 0.3000  P5     : 971.00                              
 G2     : 957.00  G3     :  7.500  PHINT  : 45.000                              


*SIMULATED CROP AND SOIL STATUS AT MAIN DEVELOPMENT STAGES

 RUN NO.     8     P05/07                  

        CROP GROWTH     BIOMASS         LEAF   CROP N     STRESS      STRESS                                           
   DATE  AGE STAGE        kg/ha    LAI   NUM  kg/ha  %   H2O  Nitr Phos1 Phos2  RSTG                                   
 ------  --- ----------   -----  -----  ----  ---  ---  ----  ----  ----  ----  ----                                   
  7 APR    0 Start Sim        0   0.00   0.0    0  0.0  0.00  0.00  0.00  0.00     7
  7 MAY    0 Sowing           0   0.00   0.0    0  0.0  0.00  0.00  0.00  0.00     8
  8 MAY    1 Germinate        0   0.00   0.0    0  0.0  0.00  0.00  0.00  0.00     9
 13 MAY    6 Emergence       25   0.00   2.1    1  4.4  0.00  0.01  0.00  0.00     1
 26 MAY   19 End Juveni      94   0.20   7.7    4  3.7  0.00  0.00  0.00  0.00     2
  2 JUN   26 Floral Ini     290   0.53  10.3   10  3.6  0.00  0.00  0.00  0.00     3
  9 JUL   63 75% Silkin    5784   3.11  21.3  121  2.1  0.11  0.00  0.00  0.00     4
 19 JUL   73 Beg Gr Fil    5966   2.05  21.3  121  2.0  0.88  0.00  0.00  0.00     5
 31 AUG  116 End Gr Fil    7374   0.46  21.3  121  1.6  0.75  0.00  0.00  0.00     6
  3 SEP  119 Maturity      7374   0.46  21.3  121  1.6  1.00  0.00  0.00  0.00    10
[...]
 NITROGEN BAL.  : SOIL-N & N-UPTAKE SIMULATION; NO N-FIXATION                   
 N-FERTILIZER   :      161 kg/ha IN     5 APPLICATIONS                          
 RESIDUE/MANURE : INITIAL :     0 kg/ha ;       0 kg/ha IN     0 APPLICATIONS   
 ENVIRONM. OPT. : DAYL=    0.00  SRAD=    0.00  TMAX=    0.00  TMIN=    0.00    
                  RAIN=    0.00  CO2 =    0.00  DEW =    0.00  WIND=    0.00    
 SIMULATION OPT : WATER   :Y  NITROGEN:Y  N-FIX:N  PHOSPH :N  PESTS  :N         
                  PHOTO   :C  ET      :R  INFIL:S  HYDROL :R  SOM    :G         
                  CO2 364ppm  NSWIT   :1  EVAP :S  SOIL   :2  STEMP  :D         
 MANAGEMENT OPT : PLANTING:R  IRRIG   :N  FERT :D  RESIDUE:R  HARVEST:M         
                  WEATHER :M  TILLAGE :N                                        
                                                                                
*SUMMARY OF SOIL AND GENETIC INPUT PARAMETERS                                   
                                                                                
   SOIL LOWER UPPER   SAT  EXTR  INIT   ROOT   BULK     pH    NO3    NH4    ORG 
  DEPTH LIMIT LIMIT    SW    SW    SW   DIST   DENS                          C  
   cm   cm3/cm3    cm3/cm3    cm3/cm3         g/cm3         ugN/g  ugN/g     %  
------------------------------------------------------------------------------- 
  0-  5 0.215 0.331 0.341 0.116 0.319   1.00   1.68   6.70  11.90   4.21   0.75 
  5- 15 0.215 0.331 0.341 0.116 0.319   1.00   1.68   6.70  11.90   4.21   0.75 
 15- 25 0.215 0.331 0.341 0.116 0.319   1.00   1.68   6.70  11.90   4.21   0.75 
 25- 35 0.181 0.291 0.364 0.110 0.331   0.50   1.61   7.20  12.15   4.32   0.53 
 35- 45 0.181 0.291 0.364 0.110 0.344   0.50   1.61   7.20  12.40   4.44   0.53 
 45- 67 0.096 0.169 0.404 0.073 0.290   0.27   1.51   7.00  10.67   4.47   0.05 
 67- 90 0.096 0.169 0.404 0.073 0.195   0.27   1.51   7.00   7.63   4.53   0.05 
                                                                                
TOT- 90  13.3  21.7  34.0   8.4  25.6  <--cm   -  kg/ha-->  151.4   62.4  51964 
SOIL ALBEDO    : 0.09      EVAPORATION LIMIT : 6.00         MIN. FACTOR  : 1.00 
RUNOFF CURVE # :76.00      DRAINAGE RATE     : 0.60         FERT. FACTOR : 1.00 
                                                                                
 Maize      CULTIVAR :CI0004-DK7088             ECOTYPE :IB0001                 
 P1     : 229.00  P2     : 0.3000  P5     : 971.00                              
 G2     : 957.00  G3     :  7.500  PHINT  : 45.000                              


*SIMULATED CROP AND SOIL STATUS AT MAIN DEVELOPMENT STAGES

 RUN NO.    35     P12/14                  

        CROP GROWTH     BIOMASS         LEAF   CROP N     STRESS      STRESS                                           
   DATE  AGE STAGE        kg/ha    LAI   NUM  kg/ha  %   H2O  Nitr Phos1 Phos2  RSTG                                   
 ------  --- ----------   -----  -----  ----  ---  ---  ----  ----  ----  ----  ----                                   
 14 NOV    0 Start Sim        0   0.00   0.0    0  0.0  0.00  0.00  0.00  0.00     7
 14 DEC    0 Sowing           0   0.00   0.0    0  0.0  0.00  0.00  0.00  0.00     8
 15 DEC    1 Germinate        0   0.00   0.0    0  0.0  0.00  0.00  0.00  0.00     9
 20 DEC    6 Emergence       25   0.00   2.1    1  4.4  0.00  0.01  0.00  0.00     1
  1 JAN   18 End Juveni     123   0.26   7.6    4  3.3  0.04  0.00  0.00  0.00     2
  5 JAN   22 Floral Ini     273   0.51   9.4   10  3.7  0.11  0.00  0.00  0.00     3
  5 FEB   53 75% Silkin    2370   1.12  19.9   57  2.4  0.56  0.00  0.00  0.00     4
 15 FEB   63 Beg Gr Fil    2864   0.97  19.9   57  2.0  0.36  0.00  0.00  0.00     5
 30 MAR  106 End Gr Fil    3940   0.22  19.9   57  1.4  0.73  0.00  0.00  0.00     6
  2 APR  109 Maturity      3940   0.22  19.9   57  1.4  0.00  0.00  0.00  0.00    10
  2 APR  109 Harvest       3940   0.22  19.9   57  1.4  0.00  0.00  0.00  0.00    10


*MAIN GROWTH AND DEVELOPMENT VARIABLES

@     VARIABLE                                         SIMULATED     MEASURED
      --------                                         ---------     --------
      Anthesis day (dap)                                      53          -99
      Physiological maturity day (dap)                       109          -99
      Yield at harvest maturity (kg [dm]/ha)                1541          -99
      Number at maturity (no/m2)                             983          -99
      Unit wt at maturity (g [dm]/unit)                   0.1568          -99
      Number at maturity (no/unit)                         158.5          -99
      Tops weight at maturity (kg [dm]/ha)                  3940          -99
      By-product produced (stalk) at maturity (kg[dm]/ha    2433          -99
      Leaf area index, maximum                              1.62          -99
      Harvest index at maturity                            0.391          -99
      Grain N at maturity (kg/ha)                             28          -99
      Tops N at maturity (kg/ha)                              57          -99
      Stem N at maturity (kg/ha)                              29          -99
      Grain N at maturity (%)                                1.8          -99
      Tops weight at anthesis (kg [dm]/ha)                  2356          -99
      Tops N at anthesis (kg/ha)                              57          -99
      Leaf number per stem at maturity                     19.92          -99
      Emergence day (dap)                                      6          -99


*ENVIRONMENTAL AND STRESS FACTORS

 |-----Development Phase------|--------------------------------------Environment--------------------------------------|-----------------Stress-----------------|
                              |---------------Average--------------|-----Cumulative-----|--------Count of days--------|          (0=Min, 1=Max Stress)         |
                         Time  Temp  Temp  Temp Solar Photop                Evapo    Pot TMIN TMIN TMAX TMAX TMAX RAIN|----Water----|---Nitrogen--|-Phosphorus-|
                         Span   Max   Min  Mean   Rad  [day]    CO2   Rain  Trans     ET   <    <    >    >    >    >   Photo         Photo         Photo
                         days    邂    邂    邂 MJ/m2     hr    ppm     mm     mm     mm  0邂  2邂 30邂 32邂 34邂  0mm  synth Growth  synth Growth  synth Growth
----------------------------------------------------------------------------------------------------------------------------------------------------------------
 Emergence-End Juvenile    12  32.7  18.0  25.4  17.3   0.00  364.9    9.0    9.2   57.7    0    0   12    8    0    1  0.000  0.037  0.002  0.006  0.000  0.000
 End Juvenil-Floral Init    4  34.2  18.6  26.4  20.1   0.00  364.9    0.0    7.4   22.5    0    0    4    4    2    0  0.000  0.127  0.001  0.003  0.000  0.000
 Floral Init-End Lf Grow   31  33.4  19.0  26.2  19.0   0.00  365.1   11.0   61.9  152.9    0    0   29   26    8    2  0.423  0.535  0.000  0.000  0.000  0.000
 End Lf Grth-Beg Grn Fil   10  31.5  19.1  25.3  12.8   0.00  365.2   45.0   19.8   33.1    0    0    6    5    1    6  0.351  0.446  0.000  0.000  0.000  0.000
 Grain Filling Phase       43  32.5  19.1  25.8  17.8   6.27  365.5   59.3   57.3  206.0    0    0   36   29    5   10  0.672  0.727  0.000  0.000  0.000  0.000


 Planting to Harvest      109  32.6  18.9  25.8  17.5   2.89  365.3  136.1  165.6  509.0    0    0   94   74   16   22  0.418  0.489  0.000  0.001  0.000  0.000
----------------------------------------------------------------------------------------------------------------------------------------------------------------


*Resource Productivity
 Growing season length: 109 days 

 Precipitation during growing season       136.1 mm[rain]
   Dry Matter Productivity                  2.89 kg[DM]/m3[rain]          =   28.9 kg[DM]/ha per mm[rain]
   Yield Productivity                       1.13 kg[grain yield]/m3[rain] =   11.3 kg[yield]/ha per mm[rain]

 Evapotranspiration during growing season  165.6 mm[ET]
   Dry Matter Productivity                  2.38 kg[DM]/m3[ET]            =   23.8 kg[DM]/ha per mm[ET]
   Yield Productivity                       0.93 kg[grain yield]/m3[ET]   =    9.3 kg[yield]/ha per mm[ET]

 Transpiration during growing season        84.9 mm[EP]
   Dry Matter Productivity                  4.64 kg[DM]/m3[EP]            =   46.4 kg[DM]/ha per mm[EP]
   Yield Productivity                       1.82 kg[grain yield]/m3[EP]   =   18.2 kg[yield]/ha per mm[EP]

 N applied during growing season            161. kg[N applied]/ha
   Dry Matter Productivity                  24.5 kg[DM]/kg[N applied]
   Yield Productivity                        9.6 kg[yield]/kg[N applied]

 N uptake during growing season               64 kg[N uptake]/ha
   Dry Matter Productivity                  61.6 kg[DM]/kg[N uptake]
   Yield Productivity                       24.1 kg[yield]/kg[N uptake]

--------------------------------------------------------------------------------------------------------------

                     Maize YIELD :     1541 kg/ha    [Dry weight] 

**************************************************************************************************************

*DSSAT Cropping System Model Ver. 4.6.1.000 -release      OCT 02, 2017; 13:30:51
                                                                                
*RUN  36        : P12/19                    MZCER046 ANBU1997   36              
 MODEL          : MZCER046 - Maize                                              
 EXPERIMENT     : ANBU1997 MZ  Analisis a침os de bajo rendimiento Buga          
 DATA PATH      : C:\DSSAT46\maize\                                             
 TREATMENT 36   : P12/19                    MZCER046                            
                                                                                
                                                                                
 CROP           : Maize            CULTIVAR : DK7088           ECOTYPE :IB0001  
 STARTING DATE  : NOV 19 1997                                                   
 PLANTING DATE  : DEC 19 1997        PLANTS/m2 :  6.2     ROW SPACING :  80.cm  
 WEATHER        : CUNI   1997                                                   
 SOIL           : CCBUGA2017     TEXTURE : CL    -   Suelo Buga MADR Fase I     
 SOIL INITIAL C : DEPTH: 90cm EXTR. H2O: 83.9mm  NO3:151.4kg/ha  NH4: 62.4kg/ha 
 WATER BALANCE  : RAINFED                                                       
 IRRIGATION     : NOT IRRIGATED                                                 
 NITROGEN BAL.  : SOIL-N & N-UPTAKE SIMULATION; NO N-FIXATION                   
 N-FERTILIZER   :      161 kg/ha IN     5 APPLICATIONS                          
 RESIDUE/MANURE : INITIAL :     0 kg/ha ;       0 kg/ha IN     0 APPLICATIONS   
 ENVIRONM. OPT. : DAYL=    0.00  SRAD=    0.00  TMAX=    0.00  TMIN=    0.00    
                  RAIN=    0.00  CO2 =    0.00  DEW =    0.00  WIND=    0.00    
 SIMULATION OPT : WATER   :Y  NITROGEN:Y  N-FIX:N  PHOSPH :N  PESTS  :N         
                  PHOTO   :C  ET      :R  INFIL:S  HYDROL :R  SOM    :G         
                  CO2 365ppm  NSWIT   :1  EVAP :S  SOIL   :2  STEMP  :D         
 MANAGEMENT OPT : PLANTING:R  IRRIG   :N  FERT :D  RESIDUE:R  HARVEST:M         
                  WEATHER :M  TILLAGE :N                                        
                                                                                
*SUMMARY OF SOIL AND GENETIC INPUT PARAMETERS                                   
                                                                                
   SOIL LOWER UPPER   SAT  EXTR  INIT   ROOT   BULK     pH    NO3    NH4    ORG 
  DEPTH LIMIT LIMIT    SW    SW    SW   DIST   DENS                          C  
   cm   cm3/cm3    cm3/cm3    cm3/cm3         g/cm3         ugN/g  ugN/g     %  
------------------------------------------------------------------------------- 
  0-  5 0.215 0.331 0.341 0.116 0.319   1.00   1.68   6.70  11.90   4.21   0.75 
  5- 15 0.215 0.331 0.341 0.116 0.319   1.00   1.68   6.70  11.90   4.21   0.75 
 15- 25 0.215 0.331 0.341 0.116 0.319   1.00   1.68   6.70  11.90   4.21   0.75 
 25- 35 0.181 0.291 0.364 0.110 0.331   0.50   1.61   7.20  12.15   4.32   0.53 
 35- 45 0.181 0.291 0.364 0.110 0.344   0.50   1.61   7.20  12.40   4.44   0.53 
 45- 67 0.096 0.169 0.404 0.073 0.290   0.27   1.51   7.00  10.67   4.47   0.05 
 67- 90 0.096 0.169 0.404 0.073 0.195   0.27   1.51   7.00   7.63   4.53   0.05 
                                                                                
TOT- 90  13.3  21.7  34.0   8.4  25.6  <--cm   -  kg/ha-->  151.4   62.4  51964 
SOIL ALBEDO    : 0.09      EVAPORATION LIMIT : 6.00         MIN. FACTOR  : 1.00 
RUNOFF CURVE # :76.00      DRAINAGE RATE     : 0.60         FERT. FACTOR : 1.00 
                                                                                
 Maize      CULTIVAR :CI0004-DK7088             ECOTYPE :IB0001                 
 P1     : 229.00  P2     : 0.3000  P5     : 971.00                              
 G2     : 957.00  G3     :  7.500  PHINT  : 45.000                              


*SIMULATED CROP AND SOIL STATUS AT MAIN DEVELOPMENT STAGES

 RUN NO.    36     P12/19                  

        CROP GROWTH     BIOMASS         LEAF   CROP N     STRESS      STRESS                                           
   DATE  AGE STAGE        kg/ha    LAI   NUM  kg/ha  %   H2O  Nitr Phos1 Phos2  RSTG                                   
 ------  --- ----------   -----  -----  ----  ---  ---  ----  ----  ----  ----  ----                                   
 19 NOV    0 Start Sim        0   0.00   0.0    0  0.0  0.00  0.00  0.00  0.00     7
 19 DEC    0 Sowing           0   0.00   0.0    0  0.0  0.00  0.00  0.00  0.00     8
 20 DEC    1 Germinate        0   0.00   0.0    0  0.0  0.00  0.00  0.00  0.00     9
 25 DEC    6 Emergence       25   0.00   2.1    1  4.4  0.00  0.01  0.00  0.00     1
  6 JAN   18 End Juveni      99   0.21   7.7    3  3.3  0.17  0.00  0.00  0.00     2
 10 JAN   22 Floral Ini     215   0.42   9.4    8  3.7  0.13  0.00  0.00  0.00     3
 10 FEB   53 75% Silkin    2345   1.15  19.6   52  2.2  0.55  0.00  0.00  0.00     4
 20 FEB   63 Beg Gr Fil    3421   1.03  19.6   52  1.5  0.34  0.00  0.00  0.00     5
  4 APR  106 End Gr Fil    4411   0.24  19.6   52  1.2  0.70  0.00  0.00  0.00     6
  6 APR  108 Maturity      4411   0.24  19.6   52  1.2  0.00  0.00  0.00  0.00    10
  6 APR  108 Harvest       4411   0.24  19.6   52  1.2  0.00  0.00  0.00  0.00    10


*MAIN GROWTH AND DEVELOPMENT VARIABLES

@     VARIABLE                                         SIMULATED     MEASURED
      --------                                         ---------     --------
      Anthesis day (dap)                                      53          -99
      Physiological maturity day (dap)                       108          -99
      Yield at harvest maturity (kg [dm]/ha)                1645          -99
      Number at maturity (no/m2)                            1560          -99
      Unit wt at maturity (g [dm]/unit)                   0.1055          -99
      Number at maturity (no/unit)                         251.5          -99
      Tops weight at maturity (kg [dm]/ha)                  4411          -99
      By-product produced (stalk) at maturity (kg[dm]/ha    2798          -99
      Leaf area index, maximum                              1.42          -99
      Harvest index at maturity                            0.373          -99
      Grain N at maturity (kg/ha)                             30          -99
      Tops N at maturity (kg/ha)                              52          -99
      Stem N at maturity (kg/ha)                              22          -99
      Grain N at maturity (%)                                1.8          -99
      Tops weight at anthesis (kg [dm]/ha)                  2318          -99
      Tops N at anthesis (kg/ha)                              52          -99
      Leaf number per stem at maturity                     19.64          -99
      Emergence day (dap)                                      6          -99


*ENVIRONMENTAL AND STRESS FACTORS

 |-----Development Phase------|--------------------------------------Environment--------------------------------------|-----------------Stress-----------------|
                              |---------------Average--------------|-----Cumulative-----|--------Count of days--------|          (0=Min, 1=Max Stress)         |
                         Time  Temp  Temp  Temp Solar Photop                Evapo    Pot TMIN TMIN TMAX TMAX TMAX RAIN|----Water----|---Nitrogen--|-Phosphorus-|
                         Span   Max   Min  Mean   Rad  [day]    CO2   Rain  Trans     ET   <    <    >    >    >    >   Photo         Photo         Photo
                         days    邂    邂    邂 MJ/m2     hr    ppm     mm     mm     mm  0邂  2邂 30邂 32邂 34邂  0mm  synth Growth  synth Growth  synth Growth
----------------------------------------------------------------------------------------------------------------------------------------------------------------
 Emergence-End Juvenile    12  33.5  18.2  25.9  18.0   0.00  364.9    9.0   10.6   61.0    0    0   12   10    3    1  0.047  0.174  0.002  0.004  0.000  0.000
 End Juvenil-Floral Init    4  31.3  19.2  25.2  14.7   0.00  364.9    0.0    4.7   16.0    0    0    3    2    0    0  0.011  0.108  0.001  0.004  0.000  0.000
 Floral Init-End Lf Grow   31  33.6  19.1  26.3  18.6   0.00  365.1   27.0   63.6  151.5    0    0   30   27    8    4  0.369  0.527  0.000  0.000  0.000  0.000
 End Lf Grth-Beg Grn Fil   10  31.4  19.0  25.2  16.0   0.00  365.3   29.0   29.3   41.2    0    0    5    4    1    4  0.201  0.328  0.000  0.000  0.000  0.000
 Grain Filling Phase       43  32.3  19.1  25.7  17.2   8.07  365.6   82.1   54.7  199.0    0    0   36   26    4   14  0.674  0.720  0.000  0.000  0.000  0.000


 Planting to Harvest      108  32.7  18.9  25.8  17.6   3.52  365.3  153.6  172.5  509.8    0    0   94   74   16   24  0.398  0.491  0.000  0.001  0.000  0.000
----------------------------------------------------------------------------------------------------------------------------------------------------------------


*Resource Productivity
 Growing season length: 108 days 

 Precipitation during growing season       153.6 mm[rain]
   Dry Matter Productivity                  2.87 kg[DM]/m3[rain]          =   28.7 kg[DM]/ha per mm[rain]
   Yield Productivity                       1.07 kg[grain yield]/m3[rain] =   10.7 kg[yield]/ha per mm[rain]

 Evapotranspiration during growing season  172.5 mm[ET]
   Dry Matter Productivity                  2.56 kg[DM]/m3[ET]            =   25.6 kg[DM]/ha per mm[ET]
   Yield Productivity                       0.95 kg[grain yield]/m3[ET]   =    9.5 kg[yield]/ha per mm[ET]

 Transpiration during growing season        82.9 mm[EP]
   Dry Matter Productivity                  5.32 kg[DM]/m3[EP]            =   53.2 kg[DM]/ha per mm[EP]
   Yield Productivity                       1.98 kg[grain yield]/m3[EP]   =   19.8 kg[yield]/ha per mm[EP]

 N applied during growing season            161. kg[N applied]/ha
   Dry Matter Productivity                  27.4 kg[DM]/kg[N applied]
   Yield Productivity                       10.2 kg[yield]/kg[N applied]

 N uptake during growing season               58 kg[N uptake]/ha
   Dry Matter Productivity                  76.1 kg[DM]/kg[N uptake]
   Yield Productivity                       28.4 kg[yield]/kg[N uptake]

--------------------------------------------------------------------------------------------------------------

                     Maize YIELD :     1645 kg/ha    [Dry weight] 

**************************************************************************************************************
