*SIMULATION OVERVIEW FILE

*DSSAT Cropping System Model Ver. 4.6.1.000 -release      OCT 02, 2017; 12:44:20
                                                                                
*RUN   1        : P07/14                    MZCER046 ANES2009    1              
 MODEL          : MZCER046 - Maize                                              
 EXPERIMENT     : ANES2009 MZ  MZ Analisis a침os de bajo rendimiento Espinal    
 DATA PATH      : C:\DSSAT46\maize\                                             
 TREATMENT  1   : P07/14                    MZCER046                            
                                                                                
                                                                                
 CROP           : Maize            CULTIVAR : DK7088           ECOTYPE :IB0001  
 STARTING DATE  : JUN 14 2009                                                   
 PLANTING DATE  : JUL 14 2009        PLANTS/m2 :  6.2     ROW SPACING :  80.cm  
 WEATHER        : CNAT   2009                                                   
 SOIL           : CCESPI2017     TEXTURE : SL    -   Suelo Espinal Calibraci    
 SOIL INITIAL C : DEPTH:100cm EXTR. H2O: 83.6mm  NO3:100.0kg/ha  NH4: 72.3kg/ha 
 WATER BALANCE  : RAINFED                                                       
 IRRIGATION     : NOT IRRIGATED                                                 
 NITROGEN BAL.  : SOIL-N & N-UPTAKE SIMULATION; NO N-FIXATION                   
 N-FERTILIZER   :      162 kg/ha IN     6 APPLICATIONS                          
 RESIDUE/MANURE : INITIAL :     0 kg/ha ;       0 kg/ha IN     0 APPLICATIONS   
 ENVIRONM. OPT. : DAYL=    0.00  SRAD=    0.00  TMAX=    0.00  TMIN=    0.00    
                  RAIN=    0.00  CO2 =    0.00  DEW =    0.00  WIND=    0.00    
 SIMULATION OPT : WATER   :Y  NITROGEN:Y  N-FIX:N  PHOSPH :N  PESTS  :N         
                  PHOTO   :C  ET      :R  INFIL:S  HYDROL :R  SOM    :G         
                  CO2 387ppm  NSWIT   :1  EVAP :S  SOIL   :2  STEMP  :D         
 MANAGEMENT OPT : PLANTING:R  IRRIG   :N  FERT :D  RESIDUE:R  HARVEST:M         
                  WEATHER :M  TILLAGE :N                                        
                                                                                
*SUMMARY OF SOIL AND GENETIC INPUT PARAMETERS                                   
                                                                                
   SOIL LOWER UPPER   SAT  EXTR  INIT   ROOT   BULK     pH    NO3    NH4    ORG 
  DEPTH LIMIT LIMIT    SW    SW    SW   DIST   DENS                          C  
   cm   cm3/cm3    cm3/cm3    cm3/cm3         g/cm3         ugN/g  ugN/g     %  
------------------------------------------------------------------------------- 
  0-  5 0.160 0.252 0.376 0.092 0.252   1.00   1.69   6.60   8.90   4.51   0.45 
  5- 15 0.160 0.252 0.376 0.092 0.252   1.00   1.69   6.60   8.90   4.51   0.45 
 15- 30 0.160 0.252 0.376 0.092 0.252   1.00   1.69   6.60   8.90   4.51   0.45 
 30- 53 0.120 0.200 0.440 0.080 0.200   0.27   1.40   7.10   5.60   5.04   0.17 
 53- 77 0.120 0.200 0.440 0.080 0.200   0.27   1.40   7.10   5.60   5.04   0.17 
 77-100 0.120 0.200 0.440 0.080 0.200   0.27   1.40   7.10   5.60   5.04   0.17 
                                                                                
TOT-100  13.2  21.6  42.1   8.4  21.6  <--cm   -  kg/ha-->  100.0   72.3  39475 
SOIL ALBEDO    : 0.09      EVAPORATION LIMIT : 6.00         MIN. FACTOR  : 1.00 
RUNOFF CURVE # :76.00      DRAINAGE RATE     : 0.60         FERT. FACTOR : 1.00 
                                                                                
 Maize      CULTIVAR :CI0004-DK7088             ECOTYPE :IB0001                 
 P1     : 229.00  P2     : 0.3000  P5     : 971.00                              
 G2     : 957.00  G3     :  7.500  PHINT  : 45.000                              


*SIMULATED CROP AND SOIL STATUS AT MAIN DEVELOPMENT STAGES

 RUN NO.     1     P07/14                  

        CROP GROWTH     BIOMASS         LEAF   CROP N     STRESS      STRESS                                           
   DATE  AGE STAGE        kg/ha    LAI   NUM  kg/ha  %   H2O  Nitr Phos1 Phos2  RSTG                                   
 ------  --- ----------   -----  -----  ----  ---  ---  ----  ----  ----  ----  ----                                   
 14 JUN    0 Start Sim        0   0.00   0.0    0  0.0  0.00  0.00  0.00  0.00     7
 14 JUL    0 Sowing           0   0.00   0.0    0  0.0  0.00  0.00  0.00  0.00     8
 15 JUL    1 Germinate        0   0.00   0.0    0  0.0  0.00  0.00  0.00  0.00     9
 19 JUL    5 Emergence       25   0.00   2.2    1  4.4  0.00  0.01  0.00  0.00     1
 30 JUL   16 End Juveni     134   0.28   7.9    5  3.4  0.05  0.00  0.00  0.00     2
  6 AUG   23 Floral Ini     490   0.82  11.3   18  3.6  0.21  0.00  0.00  0.00     3
  7 SEP   55 75% Silkin    3829   1.69  23.3   81  2.1  0.55  0.00  0.00  0.00     4
 15 SEP   63 Beg Gr Fil    3989   1.26  23.3   83  2.1  0.77  0.00  0.00  0.00     5
 22 OCT  100 End Gr Fil    5458   0.74  23.3   83  1.5  0.37  0.00  0.00  0.00     6
 25 OCT  103 Maturity      5458   0.74  23.3   83  1.5  0.30  0.00  0.00  0.00    10
 25 OCT  103 Harvest       5458   0.74  23.3   83  1.5  0.00  0.00  0.00  0.00    10


*MAIN GROWTH AND DEVELOPMENT VARIABLES

@     VARIABLE                                         SIMULATED     MEASURED
      --------                                         ---------     --------
      Anthesis day (dap)                                      55          -99
      Physiological maturity day (dap)                       103          -99
      Yield at harvest maturity (kg [dm]/ha)                1499          -99
      Number at maturity (no/m2)                             818          -99
      Unit wt at maturity (g [dm]/unit)                   0.1833          -99
      Number at maturity (no/unit)                         134.7          -99
      Tops weight at maturity (kg [dm]/ha)                  5458          -99
      By-product produced (stalk) at maturity (kg[dm]/ha    4003          -99
      Leaf area index, maximum                              1.85          -99
      Harvest index at maturity                            0.275          -99
      Grain N at maturity (kg/ha)                             27          -99
      Tops N at maturity (kg/ha)                              83          -99
      Stem N at maturity (kg/ha)                              56          -99
      Grain N at maturity (%)                                1.8          -99
      Tops weight at anthesis (kg [dm]/ha)                  3749          -99
      Tops N at anthesis (kg/ha)                              81          -99
      Leaf number per stem at maturity                     23.30          -99
      Emergence day (dap)                                      5          -99


*ENVIRONMENTAL AND STRESS FACTORS

 |-----Development Phase------|--------------------------------------Environment--------------------------------------|-----------------Stress-----------------|
                              |---------------Average--------------|-----Cumulative-----|--------Count of days--------|          (0=Min, 1=Max Stress)         |
                         Time  Temp  Temp  Temp Solar Photop                Evapo    Pot TMIN TMIN TMAX TMAX TMAX RAIN|----Water----|---Nitrogen--|-Phosphorus-|
                         Span   Max   Min  Mean   Rad  [day]    CO2   Rain  Trans     ET   <    <    >    >    >    >   Photo         Photo         Photo
                         days    邂    邂    邂 MJ/m2     hr    ppm     mm     mm     mm  0邂  2邂 30邂 32邂 34邂  0mm  synth Growth  synth Growth  synth Growth
----------------------------------------------------------------------------------------------------------------------------------------------------------------
 Emergence-End Juvenile    11  34.3  21.6  27.9  18.9  24.00  387.5    0.0    4.8   60.2    0    0   11   10    7    0  0.000  0.032  0.002  0.005  0.000  0.000
 End Juvenil-Floral Init    7  35.6  22.2  28.9  21.7  24.00  387.5    0.0   10.9   44.3    0    0    7    7    7    0  0.035  0.243  0.001  0.001  0.000  0.000
 Floral Init-End Lf Grow   32  34.3  22.0  28.2  19.6  22.80  387.6   48.0   81.3  169.9    0    0   31   27   20    7  0.371  0.528  0.000  0.000  0.000  0.000
 End Lf Grth-Beg Grn Fil    8  36.3  22.6  29.5  21.3  15.63  387.7   46.0   11.6   49.5    0    0    8    8    7    2  0.776  0.851  0.000  0.000  0.000  0.000
 Grain Filling Phase       37  35.1  22.2  28.6  20.6   6.90  387.9  100.5  115.7  215.5    0    0   37   33   25    6  0.285  0.349  0.000  0.000  0.000  0.000


 Planting to Harvest      103  34.8  22.0  28.4  20.2  16.14  387.7  215.8  231.6  583.2    0    0  101   92   70   18  0.297  0.393  0.000  0.001  0.000  0.000
----------------------------------------------------------------------------------------------------------------------------------------------------------------


*Resource Productivity
 Growing season length: 103 days 

 Precipitation during growing season       215.8 mm[rain]
   Dry Matter Productivity                  2.53 kg[DM]/m3[rain]          =   25.3 kg[DM]/ha per mm[rain]
   Yield Productivity                       0.69 kg[grain yield]/m3[rain] =    6.9 kg[yield]/ha per mm[rain]

 Evapotranspiration during growing season  231.6 mm[ET]
   Dry Matter Productivity                  2.36 kg[DM]/m3[ET]            =   23.6 kg[DM]/ha per mm[ET]
   Yield Productivity                       0.65 kg[grain yield]/m3[ET]   =    6.5 kg[yield]/ha per mm[ET]

 Transpiration during growing season       170.9 mm[EP]
   Dry Matter Productivity                  3.19 kg[DM]/m3[EP]            =   31.9 kg[DM]/ha per mm[EP]
   Yield Productivity                       0.88 kg[grain yield]/m3[EP]   =    8.8 kg[yield]/ha per mm[EP]

 N applied during growing season            162. kg[N applied]/ha
   Dry Matter Productivity                  33.7 kg[DM]/kg[N applied]
   Yield Productivity                        9.3 kg[yield]/kg[N applied]

 N uptake during growing season               91 kg[N uptake]/ha
   Dry Matter Productivity                  60.0 kg[DM]/kg[N uptake]
   Yield Productivity                       16.5 kg[yield]/kg[N uptake]

--------------------------------------------------------------------------------------------------------------

                     Maize YIELD :     1499 kg/ha    [Dry weight] 

**************************************************************************************************************

*DSSAT Cropping System Model Ver. 4.6.1.000 -release      OCT 02, 2017; 12:44:20
                                                                                
*RUN   2        : P07/19                    MZCER046 ANES2009    2              
 MODEL          : MZCER046 - Maize                                              
 EXPERIMENT     : ANES2009 MZ  MZ Analisis a침os de bajo rendimiento Espinal    
 DATA PATH      : C:\DSSAT46\maize\                                             
 TREATMENT  2   : P07/19                    MZCER046                            
                                                                                
                                                                                
 CROP           : Maize            CULTIVAR : DK7088           ECOTYPE :IB0001  
 STARTING DATE  : JUN 19 2009                                                   
 PLANTING DATE  : JUL 19 2009        PLANTS/m2 :  6.2     ROW SPACING :  80.cm  
 WEATHER        : CNAT   2009                                                   
 SOIL           : CCESPI2017     TEXTURE : SL    -   Suelo Espinal Calibraci    
 SOIL INITIAL C : DEPTH:100cm EXTR. H2O: 83.6mm  NO3:100.0kg/ha  NH4: 72.3kg/ha 
 WATER BALANCE  : RAINFED                                                       
 IRRIGATION     : NOT IRRIGATED                                                 
 NITROGEN BAL.  : SOIL-N & N-UPTAKE SIMULATION; NO N-FIXATION                   
 N-FERTILIZER   :      162 kg/ha IN     6 APPLICATIONS                          
 RESIDUE/MANURE : INITIAL :     0 kg/ha ;       0 kg/ha IN     0 APPLICATIONS   
 ENVIRONM. OPT. : DAYL=    0.00  SRAD=    0.00  TMAX=    0.00  TMIN=    0.00    
                  RAIN=    0.00  CO2 =    0.00  DEW =    0.00  WIND=    0.00    
 SIMULATION OPT : WATER   :Y  NITROGEN:Y  N-FIX:N  PHOSPH :N  PESTS  :N         
                  PHOTO   :C  ET      :R  INFIL:S  HYDROL :R  SOM    :G         
                  CO2 387ppm  NSWIT   :1  EVAP :S  SOIL   :2  STEMP  :D         
 MANAGEMENT OPT : PLANTING:R  IRRIG   :N  FERT :D  RESIDUE:R  HARVEST:M         
                  WEATHER :M  TILLAGE :N                                        
                                                                                
*SUMMARY OF SOIL AND GENETIC INPUT PARAMETERS                                   
                                                                                
   SOIL LOWER UPPER   SAT  EXTR  INIT   ROOT   BULK     pH    NO3    NH4    ORG 
  DEPTH LIMIT LIMIT    SW    SW    SW   DIST   DENS                          C  
   cm   cm3/cm3    cm3/cm3    cm3/cm3         g/cm3         ugN/g  ugN/g     %  
------------------------------------------------------------------------------- 
  0-  5 0.160 0.252 0.376 0.092 0.252   1.00   1.69   6.60   8.90   4.51   0.45 
  5- 15 0.160 0.252 0.376 0.092 0.252   1.00   1.69   6.60   8.90   4.51   0.45 
 15- 30 0.160 0.252 0.376 0.092 0.252   1.00   1.69   6.60   8.90   4.51   0.45 
 30- 53 0.120 0.200 0.440 0.080 0.200   0.27   1.40   7.10   5.60   5.04   0.17 
 53- 77 0.120 0.200 0.440 0.080 0.200   0.27   1.40   7.10   5.60   5.04   0.17 
 77-100 0.120 0.200 0.440 0.080 0.200   0.27   1.40   7.10   5.60   5.04   0.17 
                                                                                
TOT-100  13.2  21.6  42.1   8.4  21.6  <--cm   -  kg/ha-->  100.0   72.3  39475 
SOIL ALBEDO    : 0.09      EVAPORATION LIMIT : 6.00         MIN. FACTOR  : 1.00 
RUNOFF CURVE # :76.00      DRAINAGE RATE     : 0.60         FERT. FACTOR : 1.00 
                                                                                
 Maize      CULTIVAR :CI0004-DK7088             ECOTYPE :IB0001                 
 P1     : 229.00  P2     : 0.3000  P5     : 971.00                              
 G2     : 957.00  G3     :  7.500  PHINT  : 45.000                              


*SIMULATED CROP AND SOIL STATUS AT MAIN DEVELOPMENT STAGES

 RUN NO.     2     P07/19                  

        CROP GROWTH     BIOMASS         LEAF   CROP N     STRESS      STRESS                                           
   DATE  AGE STAGE        kg/ha    LAI   NUM  kg/ha  %   H2O  Nitr Phos1 Phos2  RSTG                                   
 ------  --- ----------   -----  -----  ----  ---  ---  ----  ----  ----  ----  ----                                   
 19 JUN    0 Start Sim        0   0.00   0.0    0  0.0  0.00  0.00  0.00  0.00     7
 19 JUL    0 Sowing           0   0.00   0.0    0  0.0  0.00  0.00  0.00  0.00     8
 20 JUL    1 Germinate        0   0.00   0.0    0  0.0  0.00  0.00  0.00  0.00     9
 24 JUL    5 Emergence       25   0.00   2.2    1  4.4  0.00  0.01  0.00  0.00     1
  4 AUG   16 End Juveni     152   0.31   8.1    5  3.3  0.07  0.00  0.00  0.00     2
 11 AUG   23 Floral Ini     456   0.76  11.3   16  3.6  0.25  0.00  0.00  0.00     3
 12 SEP   55 75% Silkin    3933   1.73  23.4   90  2.3  0.54  0.00  0.00  0.00     4
 21 SEP   64 Beg Gr Fil    5278   1.59  23.4   90  1.7  0.20  0.00  0.00  0.00     5
 27 OCT  100 End Gr Fil    8010   0.74  23.4   93  1.2  0.48  0.00  0.00  0.00     6
 30 OCT  103 Maturity      8010   0.74  23.4   93  1.2  0.77  0.00  0.00  0.00    10
 30 OCT  103 Harvest       8010   0.74  23.4   93  1.2  0.00  0.00  0.00  0.00    10


*MAIN GROWTH AND DEVELOPMENT VARIABLES

@     VARIABLE                                         SIMULATED     MEASURED
      --------                                         ---------     --------
      Anthesis day (dap)                                      55          -99
      Physiological maturity day (dap)                       103          -99
      Yield at harvest maturity (kg [dm]/ha)                3292          -99
      Number at maturity (no/m2)                            2014          -99
      Unit wt at maturity (g [dm]/unit)                   0.1635          -99
      Number at maturity (no/unit)                         324.8          -99
      Tops weight at maturity (kg [dm]/ha)                  8010          -99
      By-product produced (stalk) at maturity (kg[dm]/ha    4766          -99
      Leaf area index, maximum                              2.12          -99
      Harvest index at maturity                            0.411          -99
      Grain N at maturity (kg/ha)                             60          -99
      Tops N at maturity (kg/ha)                              93          -99
      Stem N at maturity (kg/ha)                              33          -99
      Grain N at maturity (%)                                1.8          -99
      Tops weight at anthesis (kg [dm]/ha)                  3909          -99
      Tops N at anthesis (kg/ha)                              90          -99
      Leaf number per stem at maturity                     23.37          -99
      Emergence day (dap)                                      5          -99


*ENVIRONMENTAL AND STRESS FACTORS

 |-----Development Phase------|--------------------------------------Environment--------------------------------------|-----------------Stress-----------------|
                              |---------------Average--------------|-----Cumulative-----|--------Count of days--------|          (0=Min, 1=Max Stress)         |
                         Time  Temp  Temp  Temp Solar Photop                Evapo    Pot TMIN TMIN TMAX TMAX TMAX RAIN|----Water----|---Nitrogen--|-Phosphorus-|
                         Span   Max   Min  Mean   Rad  [day]    CO2   Rain  Trans     ET   <    <    >    >    >    >   Photo         Photo         Photo
                         days    邂    邂    邂 MJ/m2     hr    ppm     mm     mm     mm  0邂  2邂 30邂 32邂 34邂  0mm  synth Growth  synth Growth  synth Growth
----------------------------------------------------------------------------------------------------------------------------------------------------------------
 Emergence-End Juvenile    11  35.3  21.6  28.5  20.6  24.00  387.5    0.0    5.5   67.0    0    0   11   11   11    0  0.000  0.053  0.002  0.005  0.000  0.000
 End Juvenil-Floral Init    7  34.1  22.5  28.3  16.8  24.00  387.5    0.0    8.6   33.2    0    0    7    5    5    0  0.082  0.239  0.001  0.002  0.000  0.000
 Floral Init-End Lf Grow   32  34.7  22.1  28.4  20.3  21.58  387.6   50.5   89.4  177.5    0    0   31   29   21    8  0.349  0.519  0.000  0.000  0.000  0.000
 End Lf Grth-Beg Grn Fil    9  35.0  22.0  28.5  20.3  13.64  387.8  129.5   33.6   50.4    0    0    9    8    5    3  0.281  0.299  0.000  0.000  0.000  0.000
 Grain Filling Phase       36  35.0  22.3  28.6  20.5   4.91  387.9   35.8   99.2  207.0    0    0   35   31   25    7  0.412  0.477  0.000  0.000  0.000  0.000


 Planting to Harvest      103  34.8  22.1  28.5  20.2  14.97  387.7  218.0  243.9  581.1    0    0  101   91   71   19  0.294  0.390  0.000  0.001  0.000  0.000
----------------------------------------------------------------------------------------------------------------------------------------------------------------


*Resource Productivity
 Growing season length: 103 days 

 Precipitation during growing season       218.0 mm[rain]
   Dry Matter Productivity                  3.67 kg[DM]/m3[rain]          =   36.7 kg[DM]/ha per mm[rain]
   Yield Productivity                       1.51 kg[grain yield]/m3[rain] =   15.1 kg[yield]/ha per mm[rain]

 Evapotranspiration during growing season  243.9 mm[ET]
   Dry Matter Productivity                  3.28 kg[DM]/m3[ET]            =   32.8 kg[DM]/ha per mm[ET]
   Yield Productivity                       1.35 kg[grain yield]/m3[ET]   =   13.5 kg[yield]/ha per mm[ET]

 Transpiration during growing season       181.0 mm[EP]
   Dry Matter Productivity                  4.43 kg[DM]/m3[EP]            =   44.3 kg[DM]/ha per mm[EP]
   Yield Productivity                       1.82 kg[grain yield]/m3[EP]   =   18.2 kg[yield]/ha per mm[EP]

 N applied during growing season            162. kg[N applied]/ha
   Dry Matter Productivity                  49.4 kg[DM]/kg[N applied]
   Yield Productivity                       20.3 kg[yield]/kg[N applied]

 N uptake during growing season              108 kg[N uptake]/ha
   Dry Matter Productivity                  74.2 kg[DM]/kg[N uptake]
   Yield Productivity                       30.5 kg[yield]/kg[N uptake]

--------------------------------------------------------------------------------------------------------------

                     Maize YIELD :     3292 kg/ha    [Dry weight] 

**************************************************************************************************************

*DSSAT Cropping System Model Ver. 4.6.1.000 -release      OCT 02, 2017; 12:44:20
                                                                                
*RUN   3        : P07/24                    MZCER046 ANES2009    3              
 MODEL          : MZCER046 - Maize                                              
 EXPERIMENT     : ANES2009 MZ  MZ Analisis a침os de bajo rendimiento Espinal    
 DATA PATH      : C:\DSSAT46\maize\                                             
 TREATMENT  3   : P07/24                    MZCER046                            
                                                                                
                                                                                
 CROP           : Maize            CULTIVAR : DK7088           ECOTYPE :IB0001  
 STARTING DATE  : JUN 24 2009                                                   
 PLANTING DATE  : JUL 24 2009        PLANTS/m2 :  6.2     ROW SPACING :  80.cm  
 WEATHER        : CNAT   2009                                                   
 SOIL           : CCESPI2017     TEXTURE : SL    -   Suelo Espinal Calibraci    
 SOIL INITIAL C : DEPTH:100cm EXTR. H2O: 83.6mm  NO3:100.0kg/ha  NH4: 72.3kg/ha 
 WATER BALANCE  : RAINFED                                                       
 IRRIGATION     : NOT IRRIGATED                                                 
 NITROGEN BAL.  : SOIL-N & N-UPTAKE SIMULATION; NO N-FIXATION                   
 N-FERTILIZER   :      162 kg/ha IN     6 APPLICATIONS                          
 RESIDUE/MANURE : INITIAL :     0 kg/ha ;       0 kg/ha IN     0 APPLICATIONS   
 ENVIRONM. OPT. : DAYL=    0.00  SRAD=    0.00  TMAX=    0.00  TMIN=    0.00    
                  RAIN=    0.00  CO2 =    0.00  DEW =    0.00  WIND=    0.00    
 SIMULATION OPT : WATER   :Y  NITROGEN:Y  N-FIX:N  PHOSPH :N  PESTS  :N         
                  PHOTO   :C  ET      :R  INFIL:S  HYDROL :R  SOM    :G         
                  CO2 387ppm  NSWIT   :1  EVAP :S  SOIL   :2  STEMP  :D         
 MANAGEMENT OPT : PLANTING:R  IRRIG   :N  FERT :D  RESIDUE:R  HARVEST:M         
                  WEATHER :M  TILLAGE :N                                        
                                                                                
*SUMMARY OF SOIL AND GENETIC INPUT PARAMETERS                                   
                                                                                
   SOIL LOWER UPPER   SAT  EXTR  INIT   ROOT   BULK     pH    NO3    NH4    ORG 
  DEPTH LIMIT LIMIT    SW    SW    SW   DIST   DENS                          C  
   cm   cm3/cm3    cm3/cm3    cm3/cm3         g/cm3         ugN/g  ugN/g     %  
------------------------------------------------------------------------------- 
  0-  5 0.160 0.252 0.376 0.092 0.252   1.00   1.69   6.60   8.90   4.51   0.45 
  5- 15 0.160 0.252 0.376 0.092 0.252   1.00   1.69   6.60   8.90   4.51   0.45 
 15- 30 0.160 0.252 0.376 0.092 0.252   1.00   1.69   6.60   8.90   4.51   0.45 
 30- 53 0.120 0.200 0.440 0.080 0.200   0.27   1.40   7.10   5.60   5.04   0.17 
 53- 77 0.120 0.200 0.440 0.080 0.200   0.27   1.40   7.10   5.60   5.04   0.17 
 77-100 0.120 0.200 0.440 0.080 0.200   0.27   1.40   7.10   5.60   5.04   0.17 
                                                                                
TOT-100  13.2  21.6  42.1   8.4  21.6  <--cm   -  kg/ha-->  100.0   72.3  39475 
SOIL ALBEDO    : 0.09      EVAPORATION LIMIT : 6.00         MIN. FACTOR  : 1.00 
RUNOFF CURVE # :76.00      DRAINAGE RATE     : 0.60         FERT. FACTOR : 1.00 
                                                                                
 Maize      CULTIVAR :CI0004-DK7088             ECOTYPE :IB0001                 
 P1     : 229.00  P2     : 0.3000  P5     : 971.00                              
 G2     : 957.00  G3     :  7.500  PHINT  : 45.000                              


*SIMULATED CROP AND SOIL STATUS AT MAIN DEVELOPMENT STAGES

 RUN NO.     3     P07/24                  

        CROP GROWTH     BIOMASS         LEAF   CROP N     STRESS      STRESS                                           
   DATE  AGE STAGE        kg/ha    LAI   NUM  kg/ha  %   H2O  Nitr Phos1 Phos2  RSTG                                   
 ------  --- ----------   -----  -----  ----  ---  ---  ----  ----  ----  ----  ----                                   
 24 JUN    0 Start Sim        0   0.00   0.0    0  0.0  0.00  0.00  0.00  0.00     7
 24 JUL    0 Sowing           0   0.00   0.0    0  0.0  0.00  0.00  0.00  0.00     8
 25 JUL    1 Germinate        0   0.00   0.0    0  0.0  0.00  0.00  0.00  0.00     9
 29 JUL    5 Emergence       25   0.00   2.2    1  4.4  0.00  0.01  0.00  0.00     1
  9 AUG   16 End Juveni     160   0.33   8.0    5  3.3  0.01  0.00  0.00  0.00     2
 16 AUG   23 Floral Ini     512   0.85  11.4   18  3.6  0.25  0.00  0.00  0.00     3
 18 SEP   56 75% Silkin    5018   2.21  23.5  102  2.0  0.43  0.00  0.00  0.00     4
 26 SEP   64 Beg Gr Fil    7118   2.21  23.5  102  1.4  0.00  0.00  0.00  0.00     5
  2 NOV  101 End Gr Fil   10144   0.75  23.5  111  1.1  0.67  0.00  0.00  0.00     6
  5 NOV  104 Maturity     10144   0.75  23.5  111  1.1  0.83  0.00  0.00  0.00    10
  5 NOV  104 Harvest      10144   0.75  23.5  111  1.1  0.00  0.00  0.00  0.00    10


*MAIN GROWTH AND DEVELOPMENT VARIABLES

@     VARIABLE                                         SIMULATED     MEASURED
      --------                                         ---------     --------
      Anthesis day (dap)                                      56          -99
      Physiological maturity day (dap)                       104          -99
      Yield at harvest maturity (kg [dm]/ha)                3973          -99
      Number at maturity (no/m2)                            3442          -99
      Unit wt at maturity (g [dm]/unit)                   0.1154          -99
      Number at maturity (no/unit)                         555.2          -99
      Tops weight at maturity (kg [dm]/ha)                 10144          -99
      By-product produced (stalk) at maturity (kg[dm]/ha    6226          -99
      Leaf area index, maximum                              2.55          -99
      Harvest index at maturity                            0.392          -99
      Grain N at maturity (kg/ha)                             73          -99
      Tops N at maturity (kg/ha)                             111          -99
      Stem N at maturity (kg/ha)                              38          -99
      Grain N at maturity (%)                                1.8          -99
      Tops weight at anthesis (kg [dm]/ha)                  4702          -99
      Tops N at anthesis (kg/ha)                              99          -99
      Leaf number per stem at maturity                     23.51          -99
      Emergence day (dap)                                      5          -99


*ENVIRONMENTAL AND STRESS FACTORS

 |-----Development Phase------|--------------------------------------Environment--------------------------------------|-----------------Stress-----------------|
                              |---------------Average--------------|-----Cumulative-----|--------Count of days--------|          (0=Min, 1=Max Stress)         |
                         Time  Temp  Temp  Temp Solar Photop                Evapo    Pot TMIN TMIN TMAX TMAX TMAX RAIN|----Water----|---Nitrogen--|-Phosphorus-|
                         Span   Max   Min  Mean   Rad  [day]    CO2   Rain  Trans     ET   <    <    >    >    >    >   Photo         Photo         Photo
                         days    邂    邂    邂 MJ/m2     hr    ppm     mm     mm     mm  0邂  2邂 30邂 32邂 34邂  0mm  synth Growth  synth Growth  synth Growth
----------------------------------------------------------------------------------------------------------------------------------------------------------------
 Emergence-End Juvenile    11  34.7  22.4  28.5  18.8  24.00  387.5    0.0    4.6   61.3    0    0   11    9    9    0  0.000  0.008  0.002  0.005  0.000  0.000
 End Juvenil-Floral Init    7  35.5  21.7  28.6  21.2  24.00  387.5    0.7   11.6   43.1    0    0    7    7    7    1  0.068  0.254  0.001  0.002  0.000  0.000
 Floral Init-End Lf Grow   33  34.7  22.1  28.4  20.1  19.86  387.7  179.3  107.3  180.2    0    0   32   29   20   10  0.308  0.430  0.000  0.000  0.000  0.000
 End Lf Grth-Beg Grn Fil    8  35.0  22.3  28.7  21.9  11.74  387.9    4.6   44.0   46.7    0    0    8    8    5    1  0.000  0.000  0.000  0.000  0.000  0.000
 Grain Filling Phase       37  34.7  22.3  28.5  19.9   3.26  388.0   34.3   78.8  203.8    0    0   36   30   24    9  0.571  0.645  0.000  0.000  0.000  0.000


 Planting to Harvest      104  34.7  22.1  28.4  20.0  13.67  387.8  221.8  250.7  577.2    0    0  102   90   70   24  0.327  0.408  0.000  0.001  0.000  0.000
----------------------------------------------------------------------------------------------------------------------------------------------------------------


*Resource Productivity
 Growing season length: 104 days 

 Precipitation during growing season       221.8 mm[rain]
   Dry Matter Productivity                  4.57 kg[DM]/m3[rain]          =   45.7 kg[DM]/ha per mm[rain]
   Yield Productivity                       1.79 kg[grain yield]/m3[rain] =   17.9 kg[yield]/ha per mm[rain]

 Evapotranspiration during growing season  250.7 mm[ET]
   Dry Matter Productivity                  4.05 kg[DM]/m3[ET]            =   40.5 kg[DM]/ha per mm[ET]
   Yield Productivity                       1.58 kg[grain yield]/m3[ET]   =   15.8 kg[yield]/ha per mm[ET]

 Transpiration during growing season       186.3 mm[EP]
   Dry Matter Productivity                  5.45 kg[DM]/m3[EP]            =   54.5 kg[DM]/ha per mm[EP]
   Yield Productivity                       2.13 kg[grain yield]/m3[EP]   =   21.3 kg[yield]/ha per mm[EP]

 N applied during growing season            162. kg[N applied]/ha
   Dry Matter Productivity                  62.6 kg[DM]/kg[N applied]
   Yield Productivity                       24.5 kg[yield]/kg[N applied]

 N uptake during growing season              123 kg[N uptake]/ha
   Dry Matter Productivity                  82.5 kg[DM]/kg[N uptake]
   Yield Productivity                       32.3 kg[yield]/kg[N uptake]

--------------------------------------------------------------------------------------------------------------

                     Maize YIELD :     3973 kg/ha    [Dry weight] 

**************************************************************************************************************

*DSSAT Cropping System Model Ver. 4.6.1.000 -release      OCT 02, 2017; 12:44:20
                                                                                
*RUN   4        : P07/29                    MZCER046 ANES2009    4              
 MODEL          : MZCER046 - Maize                                              
 EXPERIMENT     : ANES2009 MZ  MZ Analisis a침os de bajo rendimiento Espinal    
 DATA PATH      : C:\DSSAT46\maize\                                             
 TREATMENT  4   : P07/29                    MZCER046                            
                                                                                
                                                                                
 CROP           : Maize            CULTIVAR : DK7088           ECOTYPE :IB0001  
 STARTING DATE  : JUN 29 2009                                                   
 PLANTING DATE  : JUL 29 2009        PLANTS/m2 :  6.2     ROW SPACING :  80.cm  
 WEATHER        : CNAT   2009                                                   
 SOIL           : CCESPI2017     TEXTURE : SL    -   Suelo Espinal Calibraci    
 SOIL INITIAL C : DEPTH:100cm EXTR. H2O: 83.6mm  NO3:100.0kg/ha  NH4: 72.3kg/ha 
 WATER BALANCE  : RAINFED                                                       
 IRRIGATION     : NOT IRRIGATED                                                 
 NITROGEN BAL.  : SOIL-N & N-UPTAKE SIMULATION; NO N-FIXATION                   
 N-FERTILIZER   :      162 kg/ha IN     6 APPLICATIONS                          
 RESIDUE/MANURE : INITIAL :     0 kg/ha ;       0 kg/ha IN     0 APPLICATIONS   
 ENVIRONM. OPT. : DAYL=    0.00  SRAD=    0.00  TMAX=    0.00  TMIN=    0.00    
                  RAIN=    0.00  CO2 =    0.00  DEW =    0.00  WIND=    0.00    
 SIMULATION OPT : WATER   :Y  NITROGEN:Y  N-FIX:N  PHOSPH :N  PESTS  :N         
                  PHOTO   :C  ET      :R  INFIL:S  HYDROL :R  SOM    :G         
                  CO2 387ppm  NSWIT   :1  EVAP :S  SOIL   :2  STEMP  :D         
 MANAGEMENT OPT : PLANTING:R  IRRIG   :N  FERT :D  RESIDUE:R  HARVEST:M         
                  WEATHER :M  TILLAGE :N                                        
                                                                                
*SUMMARY OF SOIL AND GENETIC INPUT PARAMETERS                                   
                                                                                
   SOIL LOWER UPPER   SAT  EXTR  INIT   ROOT   BULK     pH    NO3    NH4    ORG 
  DEPTH LIMIT LIMIT    SW    SW    SW   DIST   DENS                          C  
   cm   cm3/cm3    cm3/cm3    cm3/cm3         g/cm3         ugN/g  ugN/g     %  
------------------------------------------------------------------------------- 
  0-  5 0.160 0.252 0.376 0.092 0.252   1.00   1.69   6.60   8.90   4.51   0.45 
  5- 15 0.160 0.252 0.376 0.092 0.252   1.00   1.69   6.60   8.90   4.51   0.45 
 15- 30 0.160 0.252 0.376 0.092 0.252   1.00   1.69   6.60   8.90   4.51   0.45 
 30- 53 0.120 0.200 0.440 0.080 0.200   0.27   1.40   7.10   5.60   5.04   0.17 
 53- 77 0.120 0.200 0.440 0.080 0.200   0.27   1.40   7.10   5.60   5.04   0.17 
 77-100 0.120 0.200 0.440 0.080 0.200   0.27   1.40   7.10   5.60   5.04   0.17 
                                                                                
TOT-100  13.2  21.6  42.1   8.4  21.6  <--cm   -  kg/ha-->  100.0   72.3  39475 
SOIL ALBEDO    : 0.09      EVAPORATION LIMIT : 6.00         MIN. FACTOR  : 1.00 
RUNOFF CURVE # :76.00      DRAINAGE RATE     : 0.60         FERT. FACTOR : 1.00 
                                                                                
 Maize      CULTIVAR :CI0004-DK7088             ECOTYPE :IB0001                 
 P1     : 229.00  P2     : 0.3000  P5     : 971.00                              
 G2     : 957.00  G3     :  7.500  PHINT  : 45.000                              


*SIMULATED CROP AND SOIL STATUS AT MAIN DEVELOPMENT STAGES

 RUN NO.     4     P07/29                  

        CROP GROWTH     BIOMASS         LEAF   CROP N     STRESS      STRESS                                           
   DATE  AGE STAGE        kg/ha    LAI   NUM  kg/ha  %   H2O  Nitr Phos1 Phos2  RSTG                                   
 ------  --- ----------   -----  -----  ----  ---  ---  ----  ----  ----  ----  ----                                   
 29 JUN    0 Start Sim        0   0.00   0.0    0  0.0  0.00  0.00  0.00  0.00     7
 29 JUL    0 Sowing           0   0.00   0.0    0  0.0  0.00  0.00  0.00  0.00     8
 30 JUL    1 Germinate        0   0.00   0.0    0  0.0  0.00  0.00  0.00  0.00     9
  3 AUG    5 Emergence       25   0.00   2.2    1  4.4  0.00  0.01  0.00  0.00     1
 14 AUG   16 End Juveni     153   0.31   8.0    5  3.1  0.05  0.00  0.00  0.00     2
 21 AUG   23 Floral Ini     502   0.84  11.3   18  3.6  0.15  0.00  0.00  0.00     3
 22 SEP   55 75% Silkin    5910   2.82  23.4  118  2.0  0.31  0.00  0.00  0.00     4
  1 OCT   64 Beg Gr Fil    8317   2.62  23.4  121  1.5  0.22  0.00  0.00  0.00     5
  7 NOV  101 End Gr Fil   10625   0.72  23.4  121  1.1  0.77  0.00  0.00  0.00     6
  9 NOV  103 Maturity     10625   0.72  23.4  121  1.1  0.97  0.00  0.00  0.00    10
  9 NOV  103 Harvest      10625   0.72  23.4  121  1.1  0.00  0.00  0.00  0.00    10


*MAIN GROWTH AND DEVELOPMENT VARIABLES

@     VARIABLE                                         SIMULATED     MEASURED
      --------                                         ---------     --------
      Anthesis day (dap)                                      55          -99
      Physiological maturity day (dap)                       103          -99
      Yield at harvest maturity (kg [dm]/ha)                3649          -99
      Number at maturity (no/m2)                            3483          -99
      Unit wt at maturity (g [dm]/unit)                   0.1048          -99
      Number at maturity (no/unit)                         561.7          -99
      Tops weight at maturity (kg [dm]/ha)                 10625          -99
      By-product produced (stalk) at maturity (kg[dm]/ha    7037          -99
      Leaf area index, maximum                              2.82          -99
      Harvest index at maturity                            0.343          -99
      Grain N at maturity (kg/ha)                             68          -99
      Tops N at maturity (kg/ha)                             121          -99
      Stem N at maturity (kg/ha)                              53          -99
      Grain N at maturity (%)                                1.9          -99
      Tops weight at anthesis (kg [dm]/ha)                  5662          -99
      Tops N at anthesis (kg/ha)                             118          -99
      Leaf number per stem at maturity                     23.37          -99
      Emergence day (dap)                                      5          -99


*ENVIRONMENTAL AND STRESS FACTORS

 |-----Development Phase------|--------------------------------------Environment--------------------------------------|-----------------Stress-----------------|
                              |---------------Average--------------|-----Cumulative-----|--------Count of days--------|          (0=Min, 1=Max Stress)         |
                         Time  Temp  Temp  Temp Solar Photop                Evapo    Pot TMIN TMIN TMAX TMAX TMAX RAIN|----Water----|---Nitrogen--|-Phosphorus-|
                         Span   Max   Min  Mean   Rad  [day]    CO2   Rain  Trans     ET   <    <    >    >    >    >   Photo         Photo         Photo
                         days    邂    邂    邂 MJ/m2     hr    ppm     mm     mm     mm  0邂  2邂 30邂 32邂 34邂  0mm  synth Growth  synth Growth  synth Growth
----------------------------------------------------------------------------------------------------------------------------------------------------------------
 Emergence-End Juvenile    11  34.8  22.1  28.5  18.3  24.00  387.5    0.7    4.9   59.7    0    0   11    9    9    1  0.000  0.053  0.002  0.004  0.000  0.000
 End Juvenil-Floral Init    7  33.8  23.3  28.5  18.4  24.00  387.6   10.0   13.4   36.8    0    0    7    6    3    2  0.030  0.146  0.001  0.003  0.000  0.000
 Floral Init-End Lf Grow   32  34.9  21.9  28.4  20.8  18.28  387.7  173.9  123.4  180.0    0    0   31   29   21    9  0.213  0.307  0.000  0.000  0.000  0.000
 End Lf Grth-Beg Grn Fil    9  36.0  22.1  29.1  22.2  10.19  387.9    0.0   48.1   54.9    0    0    9    9    8    0  0.091  0.135  0.000  0.000  0.000  0.000
 Grain Filling Phase       37  34.2  22.3  28.2  19.0   1.98  388.0   37.8   56.7  191.4    0    0   36   29   19   13  0.700  0.761  0.000  0.000  0.000  0.000


 Planting to Harvest      103  34.6  22.2  28.4  19.8  12.64  387.8  222.4  248.8  565.3    0    0  101   89   65   25  0.346  0.415  0.000  0.001  0.000  0.000
----------------------------------------------------------------------------------------------------------------------------------------------------------------


*Resource Productivity
 Growing season length: 103 days 

 Precipitation during growing season       222.4 mm[rain]
   Dry Matter Productivity                  4.78 kg[DM]/m3[rain]          =   47.8 kg[DM]/ha per mm[rain]
   Yield Productivity                       1.64 kg[grain yield]/m3[rain] =   16.4 kg[yield]/ha per mm[rain]

 Evapotranspiration during growing season  248.8 mm[ET]
   Dry Matter Productivity                  4.27 kg[DM]/m3[ET]            =   42.7 kg[DM]/ha per mm[ET]
   Yield Productivity                       1.47 kg[grain yield]/m3[ET]   =   14.7 kg[yield]/ha per mm[ET]

 Transpiration during growing season       184.1 mm[EP]
   Dry Matter Productivity                  5.77 kg[DM]/m3[EP]            =   57.7 kg[DM]/ha per mm[EP]
   Yield Productivity                       1.98 kg[grain yield]/m3[EP]   =   19.8 kg[yield]/ha per mm[EP]

 N applied during growing season            162. kg[N applied]/ha
   Dry Matter Productivity                  65.6 kg[DM]/kg[N applied]
   Yield Productivity                       22.5 kg[yield]/kg[N applied]

 N uptake during growing season              134 kg[N uptake]/ha
   Dry Matter Productivity                  79.3 kg[DM]/kg[N uptake]
   Yield Productivity                       27.2 kg[yield]/kg[N uptake]

--------------------------------------------------------------------------------------------------------------

                     Maize YIELD :     3649 kg/ha    [Dry weight] 

**************************************************************************************************************

*DSSAT Cropping System Model Ver. 4.6.1.000 -release      OCT 02, 2017; 12:44:21
                                                                                
*RUN   5        : P08/03                    MZCER046 ANES2009    5              
 MODEL          : MZCER046 - Maize                                              
 EXPERIMENT     : ANES2009 MZ  MZ Analisis a침os de bajo rendimiento Espinal    
 DATA PATH      : C:\DSSAT46\maize\                                             
 TREATMENT  5   : P08/03                    MZCER046                            
                                                                                
                                                                                
 CROP           : Maize            CULTIVAR : DK7088           ECOTYPE :IB0001  
 STARTING DATE  : JUL  4 2009                                                   
 PLANTING DATE  : AUG  3 2009        PLANTS/m2 :  6.2     ROW SPACING :  80.cm  
 WEATHER        : CNAT   2009                                                   
 SOIL           : CCESPI2017     TEXTURE : SL    -   Suelo Espinal Calibraci    
 SOIL INITIAL C : DEPTH:100cm EXTR. H2O: 83.6mm  NO3:100.0kg/ha  NH4: 72.3kg/ha 
 WATER BALANCE  : RAINFED                                                       
 IRRIGATION     : NOT IRRIGATED                                                 
 NITROGEN BAL.  : SOIL-N & N-UPTAKE SIMULATION; NO N-FIXATION                   
 N-FERTILIZER   :      162 kg/ha IN     6 APPLICATIONS                          
 RESIDUE/MANURE : INITIAL :     0 kg/ha ;       0 kg/ha IN     0 APPLICATIONS   
 ENVIRONM. OPT. : DAYL=    0.00  SRAD=    0.00  TMAX=    0.00  TMIN=    0.00    
                  RAIN=    0.00  CO2 =    0.00  DEW =    0.00  WIND=    0.00    
 SIMULATION OPT : WATER   :Y  NITROGEN:Y  N-FIX:N  PHOSPH :N  PESTS  :N         
                  PHOTO   :C  ET      :R  INFIL:S  HYDROL :R  SOM    :G         
                  CO2 387ppm  NSWIT   :1  EVAP :S  SOIL   :2  STEMP  :D         
 MANAGEMENT OPT : PLANTING:R  IRRIG   :N  FERT :D  RESIDUE:R  HARVEST:M         
                  WEATHER :M  TILLAGE :N                                        
                                                                                
*SUMMARY OF SOIL AND GENETIC INPUT PARAMETERS                                   
                                                                                
   SOIL LOWER UPPER   SAT  EXTR  INIT   ROOT   BULK     pH    NO3    NH4    ORG 
  DEPTH LIMIT LIMIT    SW    SW    SW   DIST   DENS                          C  
   cm   cm3/cm3    cm3/cm3    cm3/cm3         g/cm3         ugN/g  ugN/g     %  
------------------------------------------------------------------------------- 
  0-  5 0.160 0.252 0.376 0.092 0.252   1.00   1.69   6.60   8.90   4.51   0.45 
  5- 15 0.160 0.252 0.376 0.092 0.252   1.00   1.69   6.60   8.90   4.51   0.45 
 15- 30 0.160 0.252 0.376 0.092 0.252   1.00   1.69   6.60   8.90   4.51   0.45 
 30- 53 0.120 0.200 0.440 0.080 0.200   0.27   1.40   7.10   5.60   5.04   0.17 
 53- 77 0.120 0.200 0.440 0.080 0.200   0.27   1.40   7.10   5.60   5.04   0.17 
 77-100 0.120 0.200 0.440 0.080 0.200   0.27   1.40   7.10   5.60   5.04   0.17 
                                                                                
TOT-100  13.2  21.6  42.1   8.4  21.6  <--cm   -  kg/ha-->  100.0   72.3  39475 
SOIL ALBEDO    : 0.09      EVAPORATION LIMIT : 6.00         MIN. FACTOR  : 1.00 
RUNOFF CURVE # :76.00      DRAINAGE RATE     : 0.60         FERT. FACTOR : 1.00 
                                                                                
 Maize      CULTIVAR :CI0004-DK7088             ECOTYPE :IB0001                 
 P1     : 229.00  P2     : 0.3000  P5     : 971.00                              
 G2     : 957.00  G3     :  7.500  PHINT  : 45.000                              


*SIMULATED CROP AND SOIL STATUS AT MAIN DEVELOPMENT STAGES

 RUN NO.     5     P08/03                  

        CROP GROWTH     BIOMASS         LEAF   CROP N     STRESS      STRESS                                           
   DATE  AGE STAGE        kg/ha    LAI   NUM  kg/ha  %   H2O  Nitr Phos1 Phos2  RSTG                                   
 ------  --- ----------   -----  -----  ----  ---  ---  ----  ----  ----  ----  ----                                   
  4 JUL    0 Start Sim        0   0.00   0.0    0  0.0  0.00  0.00  0.00  0.00     7
  3 AUG    0 Sowing           0   0.00   0.0    0  0.0  0.00  0.00  0.00  0.00     8
  4 AUG    1 Germinate        0   0.00   0.0    0  0.0  0.00  0.00  0.00  0.00     9
  8 AUG    5 Emergence       25   0.00   2.1    1  4.4  0.00  0.01  0.00  0.00     1
 19 AUG   16 End Juveni     150   0.31   8.0    5  3.3  0.03  0.00  0.00  0.00     2
 25 AUG   22 Floral Ini     449   0.76  10.7   16  3.6  0.09  0.00  0.00  0.00     3
 25 SEP   53 75% Silkin    6130   2.91  22.0  117  1.9  0.25  0.00  0.00  0.00     4
  3 OCT   61 Beg Gr Fil    7607   2.52  22.0  117  1.5  0.46  0.00  0.00  0.00     5
 10 NOV   99 End Gr Fil    9706   0.64  22.0  117  1.2  0.78  0.00  0.00  0.00     6
 12 NOV  101 Maturity      9706   0.64  22.0  117  1.2  0.00  0.00  0.00  0.00    10
 12 NOV  101 Harvest       9706   0.64  22.0  117  1.2  0.00  0.00  0.00  0.00    10


*MAIN GROWTH AND DEVELOPMENT VARIABLES

@     VARIABLE                                         SIMULATED     MEASURED
      --------                                         ---------     --------
      Anthesis day (dap)                                      53          -99
      Physiological maturity day (dap)                       101          -99
      Yield at harvest maturity (kg [dm]/ha)                3400          -99
      Number at maturity (no/m2)                            2867          -99
      Unit wt at maturity (g [dm]/unit)                   0.1186          -99
      Number at maturity (no/unit)                         462.4          -99
      Tops weight at maturity (kg [dm]/ha)                  9706          -99
      By-product produced (stalk) at maturity (kg[dm]/ha    6363          -99
      Leaf area index, maximum                              2.91          -99
      Harvest index at maturity                            0.350          -99
      Grain N at maturity (kg/ha)                             63          -99
      Tops N at maturity (kg/ha)                             117          -99
      Stem N at maturity (kg/ha)                              55          -99
      Grain N at maturity (%)                                1.8          -99
      Tops weight at anthesis (kg [dm]/ha)                  5785          -99
      Tops N at anthesis (kg/ha)                             116          -99
      Leaf number per stem at maturity                     22.02          -99
      Emergence day (dap)                                      5          -99


*ENVIRONMENTAL AND STRESS FACTORS

 |-----Development Phase------|--------------------------------------Environment--------------------------------------|-----------------Stress-----------------|
                              |---------------Average--------------|-----Cumulative-----|--------Count of days--------|          (0=Min, 1=Max Stress)         |
                         Time  Temp  Temp  Temp Solar Photop                Evapo    Pot TMIN TMIN TMAX TMAX TMAX RAIN|----Water----|---Nitrogen--|-Phosphorus-|
                         Span   Max   Min  Mean   Rad  [day]    CO2   Rain  Trans     ET   <    <    >    >    >    >   Photo         Photo         Photo
                         days    邂    邂    邂 MJ/m2     hr    ppm     mm     mm     mm  0邂  2邂 30邂 32邂 34邂  0mm  synth Growth  synth Growth  synth Growth
----------------------------------------------------------------------------------------------------------------------------------------------------------------
 Emergence-End Juvenile    11  34.3  22.4  28.3  18.7  24.00  387.5    9.7    6.5   61.3    0    0   11    9    7    2  0.000  0.015  0.002  0.006  0.000  0.000
 End Juvenil-Floral Init    6  33.9  22.1  28.0  18.9  24.00  387.7   25.0   15.7   32.2    0    0    6    6    3    3  0.000  0.106  0.001  0.002  0.000  0.000
 Floral Init-End Lf Grow   31  35.0  22.0  28.5  21.2  16.86  387.7  149.9  129.1  179.4    0    0   30   28   21    7  0.177  0.248  0.000  0.000  0.000  0.000
 End Lf Grth-Beg Grn Fil    8  36.7  22.0  29.3  22.4   9.30  387.9    0.0   34.8   50.5    0    0    8    8    8    0  0.274  0.362  0.000  0.000  0.000  0.000
 Grain Filling Phase       38  34.0  22.4  28.2  18.8   1.49  388.0   40.6   54.2  193.2    0    0   37   30   18   14  0.719  0.774  0.000  0.000  0.000  0.000


 Planting to Harvest      101  34.6  22.2  28.4  19.8  11.70  387.8  237.0  248.4  553.4    0    0   99   87   62   28  0.354  0.413  0.000  0.001  0.000  0.000
----------------------------------------------------------------------------------------------------------------------------------------------------------------


*Resource Productivity
 Growing season length: 101 days 

 Precipitation during growing season       237.0 mm[rain]
   Dry Matter Productivity                  4.10 kg[DM]/m3[rain]          =   41.0 kg[DM]/ha per mm[rain]
   Yield Productivity                       1.43 kg[grain yield]/m3[rain] =   14.3 kg[yield]/ha per mm[rain]

 Evapotranspiration during growing season  248.4 mm[ET]
   Dry Matter Productivity                  3.91 kg[DM]/m3[ET]            =   39.1 kg[DM]/ha per mm[ET]
   Yield Productivity                       1.37 kg[grain yield]/m3[ET]   =   13.7 kg[yield]/ha per mm[ET]

 Transpiration during growing season       176.1 mm[EP]
   Dry Matter Productivity                  5.51 kg[DM]/m3[EP]            =   55.1 kg[DM]/ha per mm[EP]
   Yield Productivity                       1.93 kg[grain yield]/m3[EP]   =   19.3 kg[yield]/ha per mm[EP]

 N applied during growing season            162. kg[N applied]/ha
   Dry Matter Productivity                  59.9 kg[DM]/kg[N applied]
   Yield Productivity                       21.0 kg[yield]/kg[N applied]

 N uptake during growing season              130 kg[N uptake]/ha
   Dry Matter Productivity                  74.7 kg[DM]/kg[N uptake]
   Yield Productivity                       26.2 kg[yield]/kg[N uptake]

--------------------------------------------------------------------------------------------------------------

                     Maize YIELD :     3400 kg/ha    [Dry weight] 

**************************************************************************************************************

*DSSAT Cropping System Model Ver. 4.6.1.000 -release      OCT 02, 2017; 12:44:21
                                                                                
*RUN   6        : P08/08                    MZCER046 ANES2009    6              
 MODEL          : MZCER046 - Maize                                              
 EXPERIMENT     : ANES2009 MZ  MZ Analisis a침os de bajo rendimiento Espinal    
 DATA PATH      : C:\DSSAT46\maize\                                             
 TREATMENT  6   : P08/08                    MZCER046                            
                                                                                
                                                                                
 CROP           : Maize            CULTIVAR : DK7088           ECOTYPE :IB0001  
 STARTING DATE  : JUL  9 2009                                                   
 PLANTING DATE  : AUG  8 2009        PLANTS/m2 :  6.2     ROW SPACING :  80.cm  
 WEATHER        : CNAT   2009                                                   
 SOIL           : CCESPI2017     TEXTURE : SL    -   Suelo Espinal Calibraci    
 SOIL INITIAL C : DEPTH:100cm EXTR. H2O: 83.6mm  NO3:100.0kg/ha  NH4: 72.3kg/ha 
 WATER BALANCE  : RAINFED                                                       
 IRRIGATION     : NOT IRRIGATED                                                 
 NITROGEN BAL.  : SOIL-N & N-UPTAKE SIMULATION; NO N-FIXATION                   
 N-FERTILIZER   :      162 kg/ha IN     6 APPLICATIONS                          
 RESIDUE/MANURE : INITIAL :     0 kg/ha ;       0 kg/ha IN     0 APPLICATIONS   
 ENVIRONM. OPT. : DAYL=    0.00  SRAD=    0.00  TMAX=    0.00  TMIN=    0.00    
                  RAIN=    0.00  CO2 =    0.00  DEW =    0.00  WIND=    0.00    
 SIMULATION OPT : WATER   :Y  NITROGEN:Y  N-FIX:N  PHOSPH :N  PESTS  :N         
                  PHOTO   :C  ET      :R  INFIL:S  HYDROL :R  SOM    :G         
                  CO2 387ppm  NSWIT   :1  EVAP :S  SOIL   :2  STEMP  :D         
 MANAGEMENT OPT : PLANTING:R  IRRIG   :N  FERT :D  RESIDUE:R  HARVEST:M         
                  WEATHER :M  TILLAGE :N                                        
                                                                                
*SUMMARY OF SOIL AND GENETIC INPUT PARAMETERS                                   
                                                                                
   SOIL LOWER UPPER   SAT  EXTR  INIT   ROOT   BULK     pH    NO3    NH4    ORG 
  DEPTH LIMIT LIMIT    SW    SW    SW   DIST   DENS                          C  
   cm   cm3/cm3    cm3/cm3    cm3/cm3         g/cm3         ugN/g  ugN/g     %  
------------------------------------------------------------------------------- 
  0-  5 0.160 0.252 0.376 0.092 0.252   1.00   1.69   6.60   8.90   4.51   0.45 
  5- 15 0.160 0.252 0.376 0.092 0.252   1.00   1.69   6.60   8.90   4.51   0.45 
 15- 30 0.160 0.252 0.376 0.092 0.252   1.00   1.69   6.60   8.90   4.51   0.45 
 30- 53 0.120 0.200 0.440 0.080 0.200   0.27   1.40   7.10   5.60   5.04   0.17 
 53- 77 0.120 0.200 0.440 0.080 0.200   0.27   1.40   7.10   5.60   5.04   0.17 
 77-100 0.120 0.200 0.440 0.080 0.200   0.27   1.40   7.10   5.60   5.04   0.17 
                                                                                
TOT-100  13.2  21.6  42.1   8.4  21.6  <--cm   -  kg/ha-->  100.0   72.3  39475 
SOIL ALBEDO    : 0.09      EVAPORATION LIMIT : 6.00         MIN. FACTOR  : 1.00 
RUNOFF CURVE # :76.00      DRAINAGE RATE     : 0.60         FERT. FACTOR : 1.00 
                                                                                
 Maize      CULTIVAR :CI0004-DK7088             ECOTYPE :IB0001                 
 P1     : 229.00  P2     : 0.3000  P5     : 971.00                              
 G2     : 957.00  G3     :  7.500  PHINT  : 45.000                              


*SIMULATED CROP AND SOIL STATUS AT MAIN DEVELOPMENT STAGES

 RUN NO.     6     P08/08                  

        CROP GROWTH     BIOMASS         LEAF   CROP N     STRESS      STRESS                                           
   DATE  AGE STAGE        kg/ha    LAI   NUM  kg/ha  %   H2O  Nitr Phos1 Phos2  RSTG                                   
 ------  --- ----------   -----  -----  ----  ---  ---  ----  ----  ----  ----  ----                                   
  9 JUL    0 Start Sim        0   0.00   0.0    0  0.0  0.00  0.00  0.00  0.00     7
  8 AUG    0 Sowing           0   0.00   0.0    0  0.0  0.00  0.00  0.00  0.00     8
  9 AUG    1 Germinate        0   0.00   0.0    0  0.0  0.00  0.00  0.00  0.00     9
 13 AUG    5 Emergence       25   0.00   2.3    1  4.4  0.00  0.01  0.00  0.00     1
 24 AUG   16 End Juveni     153   0.31   8.0    5  3.3  0.03  0.00  0.00  0.00     2
 29 AUG   21 Floral Ini     419   0.72  10.2   15  3.7  0.00  0.00  0.00  0.00     3
 27 SEP   50 75% Silkin    6156   3.01  21.2  120  2.0  0.21  0.00  0.00  0.00     4
  6 OCT   59 Beg Gr Fil    7050   2.31  21.2  121  1.7  0.69  0.00  0.00  0.00     5
 12 NOV   96 End Gr Fil    9048   0.64  21.2  121  1.3  0.73  0.00  0.00  0.00     6
 15 NOV   99 Maturity      9048   0.64  21.2  121  1.3  0.39  0.00  0.00  0.00    10
 15 NOV   99 Harvest       9048   0.64  21.2  121  1.3  0.00  0.00  0.00  0.00    10


*MAIN GROWTH AND DEVELOPMENT VARIABLES

@     VARIABLE                                         SIMULATED     MEASURED
      --------                                         ---------     --------
      Anthesis day (dap)                                      50          -99
      Physiological maturity day (dap)                        99          -99
      Yield at harvest maturity (kg [dm]/ha)                2937          -99
      Number at maturity (no/m2)                            2003          -99
      Unit wt at maturity (g [dm]/unit)                   0.1466          -99
      Number at maturity (no/unit)                         323.1          -99
      Tops weight at maturity (kg [dm]/ha)                  9048          -99
      By-product produced (stalk) at maturity (kg[dm]/ha    6167          -99
      Leaf area index, maximum                              3.01          -99
      Harvest index at maturity                            0.325          -99
      Grain N at maturity (kg/ha)                             54          -99
      Tops N at maturity (kg/ha)                             121          -99
      Stem N at maturity (kg/ha)                              67          -99
      Grain N at maturity (%)                                1.9          -99
      Tops weight at anthesis (kg [dm]/ha)                  5815          -99
      Tops N at anthesis (kg/ha)                             119          -99
      Leaf number per stem at maturity                     21.17          -99
      Emergence day (dap)                                      5          -99


*ENVIRONMENTAL AND STRESS FACTORS

 |-----Development Phase------|--------------------------------------Environment--------------------------------------|-----------------Stress-----------------|
                              |---------------Average--------------|-----Cumulative-----|--------Count of days--------|          (0=Min, 1=Max Stress)         |
                         Time  Temp  Temp  Temp Solar Photop                Evapo    Pot TMIN TMIN TMAX TMAX TMAX RAIN|----Water----|---Nitrogen--|-Phosphorus-|
                         Span   Max   Min  Mean   Rad  [day]    CO2   Rain  Trans     ET   <    <    >    >    >    >   Photo         Photo         Photo
                         days    邂    邂    邂 MJ/m2     hr    ppm     mm     mm     mm  0邂  2邂 30邂 32邂 34邂  0mm  synth Growth  synth Growth  synth Growth
----------------------------------------------------------------------------------------------------------------------------------------------------------------
 Emergence-End Juvenile    11  34.1  22.9  28.5  18.6  24.00  387.6   34.7   14.7   60.8    0    0   11   10    6    5  0.000  0.027  0.002  0.004  0.000  0.000
 End Juvenil-Floral Init    5  33.2  20.9  27.1  20.6  24.00  387.7    0.0   14.7   29.0    0    0    4    4    2    0  0.000  0.000  0.001  0.003  0.000  0.000
 Floral Init-End Lf Grow   29  35.4  22.1  28.7  21.4  15.43  387.7  149.9  125.9  171.6    0    0   29   27   21    7  0.131  0.200  0.000  0.000  0.000  0.000
 End Lf Grth-Beg Grn Fil    9  36.1  22.6  29.4  20.8   8.37  387.9    0.4   26.6   52.0    0    0    9    9    8    1  0.487  0.616  0.000  0.000  0.000  0.000
 Grain Filling Phase       37  33.9  22.2  28.1  18.9   0.95  388.0   52.0   56.9  189.6    0    0   36   29   17   15  0.702  0.755  0.000  0.000  0.000  0.000


 Planting to Harvest       99  34.5  22.2  28.3  19.7  10.73  387.8  237.0  245.6  543.5    0    0   96   85   58   28  0.349  0.406  0.000  0.001  0.000  0.000
----------------------------------------------------------------------------------------------------------------------------------------------------------------


*Resource Productivity
 Growing season length:  99 days 

 Precipitation during growing season       237.0 mm[rain]
   Dry Matter Productivity                  3.82 kg[DM]/m3[rain]          =   38.2 kg[DM]/ha per mm[rain]
   Yield Productivity                       1.24 kg[grain yield]/m3[rain] =   12.4 kg[yield]/ha per mm[rain]

 Evapotranspiration during growing season  245.6 mm[ET]
   Dry Matter Productivity                  3.68 kg[DM]/m3[ET]            =   36.8 kg[DM]/ha per mm[ET]
   Yield Productivity                       1.20 kg[grain yield]/m3[ET]   =   12.0 kg[yield]/ha per mm[ET]

 Transpiration during growing season       166.6 mm[EP]
   Dry Matter Productivity                  5.43 kg[DM]/m3[EP]            =   54.3 kg[DM]/ha per mm[EP]
   Yield Productivity                       1.76 kg[grain yield]/m3[EP]   =   17.6 kg[yield]/ha per mm[EP]

 N applied during growing season            162. kg[N applied]/ha
   Dry Matter Productivity                  55.9 kg[DM]/kg[N applied]
   Yield Productivity                       18.1 kg[yield]/kg[N applied]

 N uptake during growing season              133 kg[N uptake]/ha
   Dry Matter Productivity                  68.0 kg[DM]/kg[N uptake]
   Yield Productivity                       22.1 kg[yield]/kg[N uptake]

--------------------------------------------------------------------------------------------------------------

                     Maize YIELD :     2937 kg/ha    [Dry weight] 

**************************************************************************************************************

*DSSAT Cropping System Model Ver. 4.6.1.000 -release      OCT 02, 2017; 12:44:21
                                                                                
*RUN   7        : P08/13                    MZCER046 ANES2009    7              
 MODEL          : MZCER046 - Maize                                              
 EXPERIMENT     : ANES2009 MZ  MZ Analisis a침os de bajo rendimiento Espinal    
 DATA PATH      : C:\DSSAT46\maize\                                             
 TREATMENT  7   : P08/13                    MZCER046                            
                                                                                
                                                                                
 CROP           : Maize            CULTIVAR : DK7088           ECOTYPE :IB0001  
 STARTING DATE  : JUL 14 2009                                                   
 PLANTING DATE  : AUG 13 2009        PLANTS/m2 :  6.2     ROW SPACING :  80.cm  
 WEATHER        : CNAT   2009                                                   
 SOIL           : CCESPI2017     TEXTURE : SL    -   Suelo Espinal Calibraci    
 SOIL INITIAL C : DEPTH:100cm EXTR. H2O: 83.6mm  NO3:100.0kg/ha  NH4: 72.3kg/ha 
 WATER BALANCE  : RAINFED                                                       
 IRRIGATION     : NOT IRRIGATED                                                 
 NITROGEN BAL.  : SOIL-N & N-UPTAKE SIMULATION; NO N-FIXATION                   
 N-FERTILIZER   :      162 kg/ha IN     6 APPLICATIONS                          
 RESIDUE/MANURE : INITIAL :     0 kg/ha ;       0 kg/ha IN     0 APPLICATIONS   
 ENVIRONM. OPT. : DAYL=    0.00  SRAD=    0.00  TMAX=    0.00  TMIN=    0.00    
                  RAIN=    0.00  CO2 =    0.00  DEW =    0.00  WIND=    0.00    
 SIMULATION OPT : WATER   :Y  NITROGEN:Y  N-FIX:N  PHOSPH :N  PESTS  :N         
                  PHOTO   :C  ET      :R  INFIL:S  HYDROL :R  SOM    :G         
                  CO2 387ppm  NSWIT   :1  EVAP :S  SOIL   :2  STEMP  :D         
 MANAGEMENT OPT : PLANTING:R  IRRIG   :N  FERT :D  RESIDUE:R  HARVEST:M         
                  WEATHER :M  TILLAGE :N                                        
                                                                                
*SUMMARY OF SOIL AND GENETIC INPUT PARAMETERS                                   
                                                                                
   SOIL LOWER UPPER   SAT  EXTR  INIT   ROOT   BULK     pH    NO3    NH4    ORG 
  DEPTH LIMIT LIMIT    SW    SW    SW   DIST   DENS                          C  
   cm   cm3/cm3    cm3/cm3    cm3/cm3         g/cm3         ugN/g  ugN/g     %  
------------------------------------------------------------------------------- 
  0-  5 0.160 0.252 0.376 0.092 0.252   1.00   1.69   6.60   8.90   4.51   0.45 
  5- 15 0.160 0.252 0.376 0.092 0.252   1.00   1.69   6.60   8.90   4.51   0.45 
 15- 30 0.160 0.252 0.376 0.092 0.252   1.00   1.69   6.60   8.90   4.51   0.45 
 30- 53 0.120 0.200 0.440 0.080 0.200   0.27   1.40   7.10   5.60   5.04   0.17 
 53- 77 0.120 0.200 0.440 0.080 0.200   0.27   1.40   7.10   5.60   5.04   0.17 
 77-100 0.120 0.200 0.440 0.080 0.200   0.27   1.40   7.10   5.60   5.04   0.17 
                                                                                
TOT-100  13.2  21.6  42.1   8.4  21.6  <--cm   -  kg/ha-->  100.0   72.3  39475 
SOIL ALBEDO    : 0.09      EVAPORATION LIMIT : 6.00         MIN. FACTOR  : 1.00 
RUNOFF CURVE # :76.00      DRAINAGE RATE     : 0.60         FERT. FACTOR : 1.00 
                                                                                
 Maize      CULTIVAR :CI0004-DK7088             ECOTYPE :IB0001                 
 P1     : 229.00  P2     : 0.3000  P5     : 971.00                              
 G2     : 957.00  G3     :  7.500  PHINT  : 45.000                              


*SIMULATED CROP AND SOIL STATUS AT MAIN DEVELOPMENT STAGES

 RUN NO.     7     P08/13                  

        CROP GROWTH     BIOMASS         LEAF   CROP N     STRESS      STRESS                                           
   DATE  AGE STAGE        kg/ha    LAI   NUM  kg/ha  %   H2O  Nitr Phos1 Phos2  RSTG                                   
 ------  --- ----------   -----  -----  ----  ---  ---  ----  ----  ----  ----  ----                                   
 14 JUL    0 Start Sim        0   0.00   0.0    0  0.0  0.00  0.00  0.00  0.00     7
 13 AUG    0 Sowing           0   0.00   0.0    0  0.0  0.00  0.00  0.00  0.00     8
 14 AUG    1 Germinate        0   0.00   0.0    0  0.0  0.00  0.00  0.00  0.00     9
 18 AUG    5 Emergence       25   0.00   2.2    1  4.4  0.00  0.01  0.00  0.00     1
 29 AUG   16 End Juveni     145   0.30   7.8    5  3.2  0.00  0.00  0.00  0.00     2
  3 SEP   21 Floral Ini     410   0.71  10.3   15  3.6  0.06  0.00  0.00  0.00     3
  2 OCT   50 75% Silkin    5906   3.04  21.2  127  2.1  0.25  0.00  0.00  0.00     4
 11 OCT   59 Beg Gr Fil    6125   2.11  21.2  127  2.1  0.86  0.00  0.00  0.00     5
 18 NOV   97 End Gr Fil    7640   0.61  21.2  127  1.7  0.72  0.00  0.00  0.00     6
 20 NOV   99 Maturity      7640   0.61  21.2  127  1.7  0.93  0.00  0.00  0.00    10
 20 NOV   99 Harvest       7640   0.61  21.2  127  1.7  0.00  0.00  0.00  0.00    10


*MAIN GROWTH AND DEVELOPMENT VARIABLES

@     VARIABLE                                         SIMULATED     MEASURED
      --------                                         ---------     --------
      Anthesis day (dap)                                      50          -99
      Physiological maturity day (dap)                        99          -99
      Yield at harvest maturity (kg [dm]/ha)                1679          -99
      Number at maturity (no/m2)                            1037          -99
      Unit wt at maturity (g [dm]/unit)                   0.1620          -99
      Number at maturity (no/unit)                         167.2          -99
      Tops weight at maturity (kg [dm]/ha)                  7640          -99
      By-product produced (stalk) at maturity (kg[dm]/ha    6020          -99
      Leaf area index, maximum                              3.26          -99
      Harvest index at maturity                            0.220          -99
      Grain N at maturity (kg/ha)                             31          -99
      Tops N at maturity (kg/ha)                             127          -99
      Stem N at maturity (kg/ha)                              96          -99
      Grain N at maturity (%)                                1.8          -99
      Tops weight at anthesis (kg [dm]/ha)                  5806          -99
      Tops N at anthesis (kg/ha)                             126          -99
      Leaf number per stem at maturity                     21.23          -99
      Emergence day (dap)                                      5          -99


*ENVIRONMENTAL AND STRESS FACTORS

 |-----Development Phase------|--------------------------------------Environment--------------------------------------|-----------------Stress-----------------|
                              |---------------Average--------------|-----Cumulative-----|--------Count of days--------|          (0=Min, 1=Max Stress)         |
                         Time  Temp  Temp  Temp Solar Photop                Evapo    Pot TMIN TMIN TMAX TMAX TMAX RAIN|----Water----|---Nitrogen--|-Phosphorus-|
                         Span   Max   Min  Mean   Rad  [day]    CO2   Rain  Trans     ET   <    <    >    >    >    >   Photo         Photo         Photo
                         days    邂    邂    邂 MJ/m2     hr    ppm     mm     mm     mm  0邂  2邂 30邂 32邂 34邂  0mm  synth Growth  synth Growth  synth Growth
----------------------------------------------------------------------------------------------------------------------------------------------------------------
 Emergence-End Juvenile    11  33.7  21.8  27.7  19.5  24.00  387.7   25.0   25.0   62.9    0    0   10   10    5    3  0.000  0.000  0.002  0.005  0.000  0.000
 End Juvenil-Floral Init    5  35.2  22.2  28.7  21.4  20.99  387.7    0.8   10.4   31.4    0    0    5    5    4    1  0.000  0.002  0.001  0.002  0.000  0.000
 Floral Init-End Lf Grow   29  35.6  22.0  28.8  21.4  13.39  387.8  149.1  130.5  173.8    0    0   29   27   22    6  0.126  0.235  0.000  0.000  0.000  0.000
 End Lf Grth-Beg Grn Fil    9  36.3  22.7  29.5  20.9   6.28  387.9    0.4   12.7   52.7    0    0    9    9    8    1  0.773  0.849  0.000  0.000  0.000  0.000
 Grain Filling Phase       38  33.3  22.3  27.8  18.0   0.22  388.1   52.9   60.8  183.0    0    0   36   28   13   17  0.660  0.720  0.000  0.000  0.000  0.000


 Planting to Harvest       99  34.4  22.3  28.3  19.6   9.51  387.9  237.9  243.2  541.9    0    0   96   85   55   30  0.378  0.441  0.000  0.001  0.000  0.000
----------------------------------------------------------------------------------------------------------------------------------------------------------------


*Resource Productivity
 Growing season length:  99 days 

 Precipitation during growing season       237.9 mm[rain]
   Dry Matter Productivity                  3.21 kg[DM]/m3[rain]          =   32.1 kg[DM]/ha per mm[rain]
   Yield Productivity                       0.71 kg[grain yield]/m3[rain] =    7.1 kg[yield]/ha per mm[rain]

 Evapotranspiration during growing season  243.2 mm[ET]
   Dry Matter Productivity                  3.14 kg[DM]/m3[ET]            =   31.4 kg[DM]/ha per mm[ET]
   Yield Productivity                       0.69 kg[grain yield]/m3[ET]   =    6.9 kg[yield]/ha per mm[ET]

 Transpiration during growing season       155.6 mm[EP]
   Dry Matter Productivity                  4.91 kg[DM]/m3[EP]            =   49.1 kg[DM]/ha per mm[EP]
   Yield Productivity                       1.08 kg[grain yield]/m3[EP]   =   10.8 kg[yield]/ha per mm[EP]

 N applied during growing season            162. kg[N applied]/ha
   Dry Matter Productivity                  47.2 kg[DM]/kg[N applied]
   Yield Productivity                       10.4 kg[yield]/kg[N applied]

 N uptake during growing season              139 kg[N uptake]/ha
   Dry Matter Productivity                  55.0 kg[DM]/kg[N uptake]
   Yield Productivity                       12.1 kg[yield]/kg[N uptake]

--------------------------------------------------------------------------------------------------------------

                     Maize YIELD :     1679 kg/ha    [Dry weight] 

**************************************************************************************************************

*DSSAT Cropping System Model Ver. 4.6.1.000 -release      OCT 02, 2017; 12:44:21
                                                                                
*RUN   8        : P08/18                    MZCER046 ANES2009    8              
 MODEL          : MZCER046 - Maize                                              
 EXPERIMENT     : ANES2009 MZ  MZ Analisis a침os de bajo rendimiento Espinal    
 DATA PATH      : C:\DSSAT46\maize\                                             
 TREATMENT  8   : P08/18                    MZCER046                            
                                                                                
                                                                                
 CROP           : Maize            CULTIVAR : DK7088           ECOTYPE :IB0001  
 STARTING DATE  : JUL 19 2009                                                   
 PLANTING DATE  : AUG 18 2009        PLANTS/m2 :  6.2     ROW SPACING :  80.cm  
 WEATHER        : CNAT   2009                                                   
 SOIL           : CCESPI2017     TEXTURE : SL    -   Suelo Espinal Calibraci    
 SOIL INITIAL C : DEPTH:100cm EXTR. H2O: 83.6mm  NO3:100.0kg/ha  NH4: 72.3kg/ha 
 WATER BALANCE  : RAINFED                                                       
 IRRIGATION     : NOT IRRIGATED                                                 
 NITROGEN BAL.  : SOIL-N & N-UPTAKE SIMULATION; NO N-FIXATION                   
 N-FERTILIZER   :      162 kg/ha IN     6 APPLICATIONS                          
 RESIDUE/MANURE : INITIAL :     0 kg/ha ;       0 kg/ha IN     0 APPLICATIONS   
 ENVIRONM. OPT. : DAYL=    0.00  SRAD=    0.00  TMAX=    0.00  TMIN=    0.00    
                  RAIN=    0.00  CO2 =    0.00  DEW =    0.00  WIND=    0.00    
 SIMULATION OPT : WATER   :Y  NITROGEN:Y  N-FIX:N  PHOSPH :N  PESTS  :N         
                  PHOTO   :C  ET      :R  INFIL:S  HYDROL :R  SOM    :G         
                  CO2 387ppm  NSWIT   :1  EVAP :S  SOIL   :2  STEMP  :D         
 MANAGEMENT OPT : PLANTING:R  IRRIG   :N  FERT :D  RESIDUE:R  HARVEST:M         
                  WEATHER :M  TILLAGE :N                                        
                                                                                
*SUMMARY OF SOIL AND GENETIC INPUT PARAMETERS                                   
                                                                                
   SOIL LOWER UPPER   SAT  EXTR  INIT   ROOT   BULK     pH    NO3    NH4    ORG 
  DEPTH LIMIT LIMIT    SW    SW    SW   DIST   DENS                          C  
   cm   cm3/cm3    cm3/cm3    cm3/cm3         g/cm3         ugN/g  ugN/g     %  
------------------------------------------------------------------------------- 
  0-  5 0.160 0.252 0.376 0.092 0.252   1.00   1.69   6.60   8.90   4.51   0.45 
  5- 15 0.160 0.252 0.376 0.092 0.252   1.00   1.69   6.60   8.90   4.51   0.45 
 15- 30 0.160 0.252 0.376 0.092 0.252   1.00   1.69   6.60   8.90   4.51   0.45 
 30- 53 0.120 0.200 0.440 0.080 0.200   0.27   1.40   7.10   5.60   5.04   0.17 
 53- 77 0.120 0.200 0.440 0.080 0.200   0.27   1.40   7.10   5.60   5.04   0.17 
 77-100 0.120 0.200 0.440 0.080 0.200   0.27   1.40   7.10   5.60   5.04   0.17 
                                                                                
TOT-100  13.2  21.6  42.1   8.4  21.6  <--cm   -  kg/ha-->  100.0   72.3  39475 
SOIL ALBEDO    : 0.09      EVAPORATION LIMIT : 6.00         MIN. FACTOR  : 1.00 
RUNOFF CURVE # :76.00      DRAINAGE RATE     : 0.60         FERT. FACTOR : 1.00 
                                                                                
 Maize      CULTIVAR :CI0004-DK7088             ECOTYPE :IB0001                 
 P1     : 229.00  P2     : 0.3000  P5     : 971.00                              
 G2     : 957.00  G3     :  7.500  PHINT  : 45.000                              


*SIMULATED CROP AND SOIL STATUS AT MAIN DEVELOPMENT STAGES

 RUN NO.     8     P08/18                  

        CROP GROWTH     BIOMASS         LEAF   CROP N     STRESS      STRESS                                           
   DATE  AGE STAGE        kg/ha    LAI   NUM  kg/ha  %   H2O  Nitr Phos1 Phos2  RSTG                                   
 ------  --- ----------   -----  -----  ----  ---  ---  ----  ----  ----  ----  ----                                   
 19 JUL    0 Start Sim        0   0.00   0.0    0  0.0  0.00  0.00  0.00  0.00     7
 18 AUG    0 Sowing           0   0.00   0.0    0  0.0  0.00  0.00  0.00  0.00     8
 19 AUG    1 Germinate        0   0.00   0.0    0  0.0  0.00  0.00  0.00  0.00     9
 23 AUG    5 Emergence       25   0.00   2.2    1  4.4  0.00  0.01  0.00  0.00     1
  3 SEP   16 End Juveni     155   0.32   7.9    5  3.2  0.00  0.00  0.00  0.00     2
  8 SEP   21 Floral Ini     435   0.75  10.3   16  3.6  0.00  0.00  0.00  0.00     3
  7 OCT   50 75% Silkin    5238   2.66  21.4  118  2.3  0.34  0.00  0.00  0.00     4
 16 OCT   59 Beg Gr Fil    5534   1.89  21.4  118  2.1  0.82  0.00  0.00  0.00     5
 23 NOV   97 End Gr Fil    6927   0.51  21.4  118  1.7  0.75  0.00  0.00  0.00     6
 25 NOV   99 Maturity      6927   0.51  21.4  118  1.7  0.00  0.00  0.00  0.00    10
 25 NOV   99 Harvest       6927   0.51  21.4  118  1.7  0.00  0.00  0.00  0.00    10


*MAIN GROWTH AND DEVELOPMENT VARIABLES

@     VARIABLE                                         SIMULATED     MEASURED
      --------                                         ---------     --------
      Anthesis day (dap)                                      50          -99
      Physiological maturity day (dap)                        99          -99
      Yield at harvest maturity (kg [dm]/ha)                1670          -99
      Number at maturity (no/m2)                            1071          -99
[...]
 WATER BALANCE  : RAINFED                                                       
 IRRIGATION     : NOT IRRIGATED                                                 
 NITROGEN BAL.  : SOIL-N & N-UPTAKE SIMULATION; NO N-FIXATION                   
 N-FERTILIZER   :      162 kg/ha IN     6 APPLICATIONS                          
 RESIDUE/MANURE : INITIAL :     0 kg/ha ;       0 kg/ha IN     0 APPLICATIONS   
 ENVIRONM. OPT. : DAYL=    0.00  SRAD=    0.00  TMAX=    0.00  TMIN=    0.00    
                  RAIN=    0.00  CO2 =    0.00  DEW =    0.00  WIND=    0.00    
 SIMULATION OPT : WATER   :Y  NITROGEN:Y  N-FIX:N  PHOSPH :N  PESTS  :N         
                  PHOTO   :C  ET      :R  INFIL:S  HYDROL :R  SOM    :G         
                  CO2 388ppm  NSWIT   :1  EVAP :S  SOIL   :2  STEMP  :D         
 MANAGEMENT OPT : PLANTING:R  IRRIG   :N  FERT :D  RESIDUE:R  HARVEST:M         
                  WEATHER :M  TILLAGE :N                                        
                                                                                
*SUMMARY OF SOIL AND GENETIC INPUT PARAMETERS                                   
                                                                                
   SOIL LOWER UPPER   SAT  EXTR  INIT   ROOT   BULK     pH    NO3    NH4    ORG 
  DEPTH LIMIT LIMIT    SW    SW    SW   DIST   DENS                          C  
   cm   cm3/cm3    cm3/cm3    cm3/cm3         g/cm3         ugN/g  ugN/g     %  
------------------------------------------------------------------------------- 
  0-  5 0.160 0.252 0.376 0.092 0.252   1.00   1.69   6.60   8.90   4.51   0.45 
  5- 15 0.160 0.252 0.376 0.092 0.252   1.00   1.69   6.60   8.90   4.51   0.45 
 15- 30 0.160 0.252 0.376 0.092 0.252   1.00   1.69   6.60   8.90   4.51   0.45 
 30- 53 0.120 0.200 0.440 0.080 0.200   0.27   1.40   7.10   5.60   5.04   0.17 
 53- 77 0.120 0.200 0.440 0.080 0.200   0.27   1.40   7.10   5.60   5.04   0.17 
 77-100 0.120 0.200 0.440 0.080 0.200   0.27   1.40   7.10   5.60   5.04   0.17 
                                                                                
TOT-100  13.2  21.6  42.1   8.4  21.6  <--cm   -  kg/ha-->  100.0   72.3  39475 
SOIL ALBEDO    : 0.09      EVAPORATION LIMIT : 6.00         MIN. FACTOR  : 1.00 
RUNOFF CURVE # :76.00      DRAINAGE RATE     : 0.60         FERT. FACTOR : 1.00 
                                                                                
 Maize      CULTIVAR :CI0004-DK7088             ECOTYPE :IB0001                 
 P1     : 229.00  P2     : 0.3000  P5     : 971.00                              
 G2     : 957.00  G3     :  7.500  PHINT  : 45.000                              


*SIMULATED CROP AND SOIL STATUS AT MAIN DEVELOPMENT STAGES

 RUN NO.    31     P11/26                  

        CROP GROWTH     BIOMASS         LEAF   CROP N     STRESS      STRESS                                           
   DATE  AGE STAGE        kg/ha    LAI   NUM  kg/ha  %   H2O  Nitr Phos1 Phos2  RSTG                                   
 ------  --- ----------   -----  -----  ----  ---  ---  ----  ----  ----  ----  ----                                   
 26 NOV    0 Start Sim        0   0.00   0.0    0  0.0  0.00  0.00  0.00  0.00     7
 26 DEC    0 Sowing           0   0.00   0.0    0  0.0  0.00  0.00  0.00  0.00     8
 27 DEC    1 Germinate        0   0.00   0.0    0  0.0  0.00  0.00  0.00  0.00     9
 31 DEC    5 Emergence       25   0.00   2.2    1  4.4  0.00  0.01  0.00  0.00     1
 11 JAN   16 End Juveni     151   0.31   7.9    5  3.2  0.00  0.00  0.00  0.00     2
 15 JAN   20 Floral Ini     360   0.64   9.8   13  3.7  0.00  0.00  0.00  0.00     3
 13 FEB   49 75% Silkin    2820   1.34  20.3   61  2.2  0.56  0.00  0.00  0.00     4
 21 FEB   57 Beg Gr Fil    2916   0.96  20.3   61  2.1  0.88  0.00  0.00  0.00     5
 29 MAR   93 End Gr Fil    4242   0.60  20.3   61  1.4  0.31  0.00  0.00  0.00     6
  1 APR   96 Maturity      4242   0.60  20.3   61  1.4  0.00  0.00  0.00  0.00    10
  1 APR   96 Harvest       4242   0.60  20.3   61  1.4  0.00  0.00  0.00  0.00    10


*MAIN GROWTH AND DEVELOPMENT VARIABLES

@     VARIABLE                                         SIMULATED     MEASURED
      --------                                         ---------     --------
      Anthesis day (dap)                                      49          -99
      Physiological maturity day (dap)                        96          -99
      Yield at harvest maturity (kg [dm]/ha)                1268          -99
      Number at maturity (no/m2)                             708          -99
      Unit wt at maturity (g [dm]/unit)                   0.1790          -99
      Number at maturity (no/unit)                         120.9          -99
      Tops weight at maturity (kg [dm]/ha)                  4242          -99
      By-product produced (stalk) at maturity (kg[dm]/ha    3013          -99
      Leaf area index, maximum                              1.90          -99
      Harvest index at maturity                            0.299          -99
      Grain N at maturity (kg/ha)                             23          -99
      Tops N at maturity (kg/ha)                              61          -99
      Stem N at maturity (kg/ha)                              37          -99
      Grain N at maturity (%)                                1.8          -99
      Tops weight at anthesis (kg [dm]/ha)                  2774          -99
      Tops N at anthesis (kg/ha)                              61          -99
      Leaf number per stem at maturity                     20.26          -99
      Emergence day (dap)                                      5          -99


*ENVIRONMENTAL AND STRESS FACTORS

 |-----Development Phase------|--------------------------------------Environment--------------------------------------|-----------------Stress-----------------|
                              |---------------Average--------------|-----Cumulative-----|--------Count of days--------|          (0=Min, 1=Max Stress)         |
                         Time  Temp  Temp  Temp Solar Photop                Evapo    Pot TMIN TMIN TMAX TMAX TMAX RAIN|----Water----|---Nitrogen--|-Phosphorus-|
                         Span   Max   Min  Mean   Rad  [day]    CO2   Rain  Trans     ET   <    <    >    >    >    >   Photo         Photo         Photo
                         days    邂    邂    邂 MJ/m2     hr    ppm     mm     mm     mm  0邂  2邂 30邂 32邂 34邂  0mm  synth Growth  synth Growth  synth Growth
----------------------------------------------------------------------------------------------------------------------------------------------------------------
 Emergence-End Juvenile    11  33.7  22.3  28.0  20.5   0.00  388.5  109.8   33.4   66.1    0    0   11   11    4    4  0.000  0.000  0.002  0.006  0.000  0.000
 End Juvenil-Floral Init    4  34.6  22.5  28.5  21.0   0.00  388.5    0.0    7.7   24.1    0    0    4    4    4    0  0.000  0.000  0.001  0.002  0.000  0.000
 Floral Init-End Lf Grow   29  34.4  22.4  28.4  19.9   0.00  388.8    2.0   59.3  156.9    0    0   27   24   19    3  0.398  0.529  0.000  0.000  0.000  0.000
 End Lf Grth-Beg Grn Fil    8  35.1  23.8  29.4  20.2   0.00  389.0    1.5    7.8   45.0    0    0    8    8    5    2  0.788  0.859  0.000  0.000  0.000  0.000
 Grain Filling Phase       36  34.4  22.9  28.6  19.6   7.10  389.1  422.6  118.7  201.1    0    0   35   31   23   12  0.279  0.336  0.000  0.000  0.000  0.000


 Planting to Harvest       96  34.2  22.6  28.4  19.9   3.12  388.9  608.8  258.4  537.9    0    0   93   83   56   22  0.290  0.357  0.000  0.001  0.000  0.000
----------------------------------------------------------------------------------------------------------------------------------------------------------------


*Resource Productivity
 Growing season length:  96 days 

 Precipitation during growing season       608.8 mm[rain]
   Dry Matter Productivity                  0.70 kg[DM]/m3[rain]          =    7.0 kg[DM]/ha per mm[rain]
   Yield Productivity                       0.21 kg[grain yield]/m3[rain] =    2.1 kg[yield]/ha per mm[rain]

 Evapotranspiration during growing season  258.4 mm[ET]
   Dry Matter Productivity                  1.64 kg[DM]/m3[ET]            =   16.4 kg[DM]/ha per mm[ET]
   Yield Productivity                       0.49 kg[grain yield]/m3[ET]   =    4.9 kg[yield]/ha per mm[ET]

 Transpiration during growing season       127.0 mm[EP]
   Dry Matter Productivity                  3.34 kg[DM]/m3[EP]            =   33.4 kg[DM]/ha per mm[EP]
   Yield Productivity                       1.00 kg[grain yield]/m3[EP]   =   10.0 kg[yield]/ha per mm[EP]

 N applied during growing season            162. kg[N applied]/ha
   Dry Matter Productivity                  26.2 kg[DM]/kg[N applied]
   Yield Productivity                        7.8 kg[yield]/kg[N applied]

 N uptake during growing season               69 kg[N uptake]/ha
   Dry Matter Productivity                  61.5 kg[DM]/kg[N uptake]
   Yield Productivity                       18.4 kg[yield]/kg[N uptake]

--------------------------------------------------------------------------------------------------------------

                     Maize YIELD :     1268 kg/ha    [Dry weight] 

**************************************************************************************************************

*DSSAT Cropping System Model Ver. 4.6.1.000 -release      OCT 02, 2017; 12:44:25
                                                                                
*RUN  32        : P12/31                    MZCER046 ANES2009   32              
 MODEL          : MZCER046 - Maize                                              
 EXPERIMENT     : ANES2009 MZ  MZ Analisis a침os de bajo rendimiento Espinal    
 DATA PATH      : C:\DSSAT46\maize\                                             
 TREATMENT 32   : P12/31                    MZCER046                            
                                                                                
                                                                                
 CROP           : Maize            CULTIVAR : DK7088           ECOTYPE :IB0001  
 STARTING DATE  : DEC  1 2009                                                   
 PLANTING DATE  : DEC 31 2009        PLANTS/m2 :  6.2     ROW SPACING :  80.cm  
 WEATHER        : CNAT   2009                                                   
 SOIL           : CCESPI2017     TEXTURE : SL    -   Suelo Espinal Calibraci    
 SOIL INITIAL C : DEPTH:100cm EXTR. H2O: 83.6mm  NO3:100.0kg/ha  NH4: 72.3kg/ha 
 WATER BALANCE  : RAINFED                                                       
 IRRIGATION     : NOT IRRIGATED                                                 
 NITROGEN BAL.  : SOIL-N & N-UPTAKE SIMULATION; NO N-FIXATION                   
 N-FERTILIZER   :      162 kg/ha IN     6 APPLICATIONS                          
 RESIDUE/MANURE : INITIAL :     0 kg/ha ;       0 kg/ha IN     0 APPLICATIONS   
 ENVIRONM. OPT. : DAYL=    0.00  SRAD=    0.00  TMAX=    0.00  TMIN=    0.00    
                  RAIN=    0.00  CO2 =    0.00  DEW =    0.00  WIND=    0.00    
 SIMULATION OPT : WATER   :Y  NITROGEN:Y  N-FIX:N  PHOSPH :N  PESTS  :N         
                  PHOTO   :C  ET      :R  INFIL:S  HYDROL :R  SOM    :G         
                  CO2 388ppm  NSWIT   :1  EVAP :S  SOIL   :2  STEMP  :D         
 MANAGEMENT OPT : PLANTING:R  IRRIG   :N  FERT :D  RESIDUE:R  HARVEST:M         
                  WEATHER :M  TILLAGE :N                                        
                                                                                
*SUMMARY OF SOIL AND GENETIC INPUT PARAMETERS                                   
                                                                                
   SOIL LOWER UPPER   SAT  EXTR  INIT   ROOT   BULK     pH    NO3    NH4    ORG 
  DEPTH LIMIT LIMIT    SW    SW    SW   DIST   DENS                          C  
   cm   cm3/cm3    cm3/cm3    cm3/cm3         g/cm3         ugN/g  ugN/g     %  
------------------------------------------------------------------------------- 
  0-  5 0.160 0.252 0.376 0.092 0.252   1.00   1.69   6.60   8.90   4.51   0.45 
  5- 15 0.160 0.252 0.376 0.092 0.252   1.00   1.69   6.60   8.90   4.51   0.45 
 15- 30 0.160 0.252 0.376 0.092 0.252   1.00   1.69   6.60   8.90   4.51   0.45 
 30- 53 0.120 0.200 0.440 0.080 0.200   0.27   1.40   7.10   5.60   5.04   0.17 
 53- 77 0.120 0.200 0.440 0.080 0.200   0.27   1.40   7.10   5.60   5.04   0.17 
 77-100 0.120 0.200 0.440 0.080 0.200   0.27   1.40   7.10   5.60   5.04   0.17 
                                                                                
TOT-100  13.2  21.6  42.1   8.4  21.6  <--cm   -  kg/ha-->  100.0   72.3  39475 
SOIL ALBEDO    : 0.09      EVAPORATION LIMIT : 6.00         MIN. FACTOR  : 1.00 
RUNOFF CURVE # :76.00      DRAINAGE RATE     : 0.60         FERT. FACTOR : 1.00 
                                                                                
 Maize      CULTIVAR :CI0004-DK7088             ECOTYPE :IB0001                 
 P1     : 229.00  P2     : 0.3000  P5     : 971.00                              
 G2     : 957.00  G3     :  7.500  PHINT  : 45.000                              


*SIMULATED CROP AND SOIL STATUS AT MAIN DEVELOPMENT STAGES

 RUN NO.    32     P12/31                  

        CROP GROWTH     BIOMASS         LEAF   CROP N     STRESS      STRESS                                           
   DATE  AGE STAGE        kg/ha    LAI   NUM  kg/ha  %   H2O  Nitr Phos1 Phos2  RSTG                                   
 ------  --- ----------   -----  -----  ----  ---  ---  ----  ----  ----  ----  ----                                   
  1 DEC    0 Start Sim        0   0.00   0.0    0  0.0  0.00  0.00  0.00  0.00     7
 31 DEC    0 Sowing           0   0.00   0.0    0  0.0  0.00  0.00  0.00  0.00     8
  1 JAN    1 Germinate        0   0.00   0.0    0  0.0  0.00  0.00  0.00  0.00     9
  5 JAN    5 Emergence       25   0.00   2.2    1  4.4  0.00  0.01  0.00  0.00     1
 16 JAN   16 End Juveni     165   0.34   8.0    5  3.3  0.00  0.00  0.00  0.00     2
 20 JAN   20 Floral Ini     387   0.68  10.0   14  3.7  0.00  0.00  0.00  0.00     3
 18 FEB   49 75% Silkin    2802   1.31  20.8   62  2.2  0.56  0.06  0.00  0.00     4
 26 FEB   57 Beg Gr Fil    2868   0.94  20.8   62  2.1  0.88  0.00  0.00  0.00     5
  4 APR   94 End Gr Fil    4197   0.67  20.8   62  1.5  0.23  0.00  0.00  0.00     6
  7 APR   97 Maturity      4197   0.67  20.8   62  1.5  0.00  0.00  0.00  0.00    10
  7 APR   97 Harvest       4197   0.67  20.8   62  1.5  0.00  0.00  0.00  0.00    10


*MAIN GROWTH AND DEVELOPMENT VARIABLES

@     VARIABLE                                         SIMULATED     MEASURED
      --------                                         ---------     --------
      Anthesis day (dap)                                      49          -99
      Physiological maturity day (dap)                        97          -99
      Yield at harvest maturity (kg [dm]/ha)                1248          -99
      Number at maturity (no/m2)                             632          -99
      Unit wt at maturity (g [dm]/unit)                   0.1975          -99
      Number at maturity (no/unit)                         111.0          -99
      Tops weight at maturity (kg [dm]/ha)                  4197          -99
      By-product produced (stalk) at maturity (kg[dm]/ha    2989          -99
      Leaf area index, maximum                              1.91          -99
      Harvest index at maturity                            0.297          -99
      Grain N at maturity (kg/ha)                             22          -99
      Tops N at maturity (kg/ha)                              62          -99
      Stem N at maturity (kg/ha)                              37          -99
      Grain N at maturity (%)                                1.8          -99
      Tops weight at anthesis (kg [dm]/ha)                  2766          -99
      Tops N at anthesis (kg/ha)                              62          -99
      Leaf number per stem at maturity                     20.83          -99
      Emergence day (dap)                                      5          -99


*ENVIRONMENTAL AND STRESS FACTORS

 |-----Development Phase------|--------------------------------------Environment--------------------------------------|-----------------Stress-----------------|
                              |---------------Average--------------|-----Cumulative-----|--------Count of days--------|          (0=Min, 1=Max Stress)         |
                         Time  Temp  Temp  Temp Solar Photop                Evapo    Pot TMIN TMIN TMAX TMAX TMAX RAIN|----Water----|---Nitrogen--|-Phosphorus-|
                         Span   Max   Min  Mean   Rad  [day]    CO2   Rain  Trans     ET   <    <    >    >    >    >   Photo         Photo         Photo
                         days    邂    邂    邂 MJ/m2     hr    ppm     mm     mm     mm  0邂  2邂 30邂 32邂 34邂  0mm  synth Growth  synth Growth  synth Growth
----------------------------------------------------------------------------------------------------------------------------------------------------------------
 Emergence-End Juvenile    11  34.3  22.7  28.5  20.8   0.00  388.6  106.7   34.7   67.6    0    0   11   11    8    3  0.000  0.000  0.002  0.006  0.000  0.000
 End Juvenil-Floral Init    4  34.9  22.7  28.8  20.7   0.00  388.8    0.0    7.2   23.9    0    0    4    4    3    0  0.000  0.000  0.001  0.004  0.000  0.000
 Floral Init-End Lf Grow   29  34.4  22.6  28.5  19.6   0.00  388.8    3.3   56.7  155.3    0    0   27   24   17    4  0.430  0.527  0.025  0.062  0.000  0.000
 End Lf Grth-Beg Grn Fil    8  34.9  23.6  29.2  20.2   0.00  389.0    0.2    6.6   45.5    0    0    8    7    5    1  0.813  0.876  0.000  0.000  0.000  0.000
 Grain Filling Phase       37  34.2  22.7  28.5  19.5   9.38  389.1  498.4  144.8  204.1    0    0   36   30   24   14  0.196  0.253  0.000  0.000  0.000  0.000


 Planting to Harvest       97  34.3  22.6  28.4  19.8   4.10  388.9  611.7  261.8  542.5    0    0   94   83   58   23  0.271  0.326  0.008  0.019  0.000  0.000
----------------------------------------------------------------------------------------------------------------------------------------------------------------


*Resource Productivity
 Growing season length:  97 days 

 Precipitation during growing season       611.7 mm[rain]
   Dry Matter Productivity                  0.69 kg[DM]/m3[rain]          =    6.9 kg[DM]/ha per mm[rain]
   Yield Productivity                       0.20 kg[grain yield]/m3[rain] =    2.0 kg[yield]/ha per mm[rain]

 Evapotranspiration during growing season  261.8 mm[ET]
   Dry Matter Productivity                  1.60 kg[DM]/m3[ET]            =   16.0 kg[DM]/ha per mm[ET]
   Yield Productivity                       0.48 kg[grain yield]/m3[ET]   =    4.8 kg[yield]/ha per mm[ET]

 Transpiration during growing season       136.8 mm[EP]
   Dry Matter Productivity                  3.07 kg[DM]/m3[EP]            =   30.7 kg[DM]/ha per mm[EP]
   Yield Productivity                       0.91 kg[grain yield]/m3[EP]   =    9.1 kg[yield]/ha per mm[EP]

 N applied during growing season            162. kg[N applied]/ha
   Dry Matter Productivity                  25.9 kg[DM]/kg[N applied]
   Yield Productivity                        7.7 kg[yield]/kg[N applied]

 N uptake during growing season               69 kg[N uptake]/ha
   Dry Matter Productivity                  60.8 kg[DM]/kg[N uptake]
   Yield Productivity                       18.1 kg[yield]/kg[N uptake]

--------------------------------------------------------------------------------------------------------------

                     Maize YIELD :     1248 kg/ha    [Dry weight] 

**************************************************************************************************************
