*SIMULATION OVERVIEW FILE

*DSSAT Cropping System Model Ver. 4.6.1.000 -release      OCT 24, 2017; 10:41:46
                                                                                
*RUN   1        : P04/02                    MZCER046 ANBU1997    1              
 MODEL          : MZCER046 - Maize                                              
 EXPERIMENT     : ANBU1997 MZ  Analisis a침os de bajo rendimiento Buga          
 DATA PATH      : C:\DSSAT46\maize\                                             
 TREATMENT  1   : P04/02                    MZCER046                            
                                                                                
                                                                                
 CROP           : Maize            CULTIVAR : FNC3056          ECOTYPE :IB0001  
 STARTING DATE  : MAR  3 1997                                                   
 PLANTING DATE  : APR  2 1997        PLANTS/m2 :  6.2     ROW SPACING :  80.cm  
 WEATHER        : CUNI   1997                                                   
 SOIL           : CCBUGA2017     TEXTURE : CL    -   Suelo Buga MADR Fase I     
 SOIL INITIAL C : DEPTH: 90cm EXTR. H2O: 83.9mm  NO3:  0.0kg/ha  NH4:  0.0kg/ha 
 WATER BALANCE  : RAINFED                                                       
 IRRIGATION     : NOT IRRIGATED                                                 
 NITROGEN BAL.  : SOIL-N & N-UPTAKE SIMULATION; NO N-FIXATION                   
 N-FERTILIZER   :      161 kg/ha IN     5 APPLICATIONS                          
 RESIDUE/MANURE : INITIAL :     0 kg/ha ;       0 kg/ha IN     0 APPLICATIONS   
 ENVIRONM. OPT. : DAYL=    0.00  SRAD=    0.00  TMAX=    0.00  TMIN=    0.00    
                  RAIN=    0.00  CO2 =    0.00  DEW =    0.00  WIND=    0.00    
 SIMULATION OPT : WATER   :Y  NITROGEN:Y  N-FIX:N  PHOSPH :N  PESTS  :N         
                  PHOTO   :C  ET      :R  INFIL:S  HYDROL :R  SOM    :G         
                  CO2 363ppm  NSWIT   :1  EVAP :S  SOIL   :2  STEMP  :D         
 MANAGEMENT OPT : PLANTING:R  IRRIG   :N  FERT :D  RESIDUE:R  HARVEST:M         
                  WEATHER :M  TILLAGE :N                                        
                                                                                
*SUMMARY OF SOIL AND GENETIC INPUT PARAMETERS                                   
                                                                                
   SOIL LOWER UPPER   SAT  EXTR  INIT   ROOT   BULK     pH    NO3    NH4    ORG 
  DEPTH LIMIT LIMIT    SW    SW    SW   DIST   DENS                          C  
   cm   cm3/cm3    cm3/cm3    cm3/cm3         g/cm3         ugN/g  ugN/g     %  
------------------------------------------------------------------------------- 
  0-  5 0.215 0.331 0.341 0.116 0.331   1.00   1.68   6.70   0.00   0.00   0.75 
  5- 15 0.215 0.331 0.341 0.116 0.331   1.00   1.68   6.70   0.00   0.00   0.75 
 15- 25 0.215 0.331 0.341 0.116 0.331   1.00   1.68   6.70   0.00   0.00   0.75 
 25- 35 0.181 0.291 0.364 0.110 0.291   0.50   1.61   7.20   0.00   0.00   0.53 
 35- 45 0.181 0.291 0.364 0.110 0.291   0.50   1.61   7.20   0.00   0.00   0.53 
 45- 67 0.096 0.169 0.404 0.073 0.169   0.27   1.51   7.00   0.00   0.00   0.05 
 67- 90 0.096 0.169 0.404 0.073 0.169   0.27   1.51   7.00   0.00   0.00   0.05 
                                                                                
TOT- 90  13.3  21.7  34.0   8.4  21.7  <--cm   -  kg/ha-->    0.0    0.0  51964 
SOIL ALBEDO    : 0.09      EVAPORATION LIMIT : 6.00         MIN. FACTOR  : 1.00 
RUNOFF CURVE # :76.00      DRAINAGE RATE     : 0.60         FERT. FACTOR : 1.00 
                                                                                
 Maize      CULTIVAR :CI0003-FNC3056            ECOTYPE :IB0001                 
 P1     : 233.00  P2     : 0.5000  P5     : 976.00                              
 G2     : 956.00  G3     :  7.500  PHINT  : 45.600                              


*SIMULATED CROP AND SOIL STATUS AT MAIN DEVELOPMENT STAGES

 RUN NO.     1     P04/02                  

        CROP GROWTH     BIOMASS         LEAF   CROP N     STRESS      STRESS                                           
   DATE  AGE STAGE        kg/ha    LAI   NUM  kg/ha  %   H2O  Nitr Phos1 Phos2  RSTG                                   
 ------  --- ----------   -----  -----  ----  ---  ---  ----  ----  ----  ----  ----                                   
  3 MAR    0 Start Sim        0   0.00   0.0    0  0.0  0.00  0.00  0.00  0.00     7
  2 APR    0 Sowing           0   0.00   0.0    0  0.0  0.00  0.00  0.00  0.00     8
  3 APR    1 Germinate        0   0.00   0.0    0  0.0  0.00  0.00  0.00  0.00     9
  8 APR    6 Emergence       25   0.00   2.1    1  4.4  0.00  0.01  0.00  0.00     1
 20 APR   18 End Juveni      92   0.20   7.4    4  3.9  0.00  0.00  0.00  0.00     2
 27 APR   25 Floral Ini     238   0.45   9.9    9  3.6  0.00  0.00  0.00  0.00     3
  2 JUN   61 75% Silkin    6302   3.52  21.0  128  2.0  0.01  0.00  0.00  0.00     4
 13 JUN   72 Beg Gr Fil    8257   3.33  21.0  129  1.6  0.05  0.00  0.00  0.00     5
 28 JUL  117 End Gr Fil   13161   1.14  21.0  168  1.3  0.51  0.00  0.00  0.00     6
 31 JUL  120 Maturity     13161   1.14  21.0  168  1.3  0.00  0.00  0.00  0.00    10
 31 JUL  120 Harvest      13161   1.14  21.0  168  1.3  0.00  0.00  0.00  0.00    10


*MAIN GROWTH AND DEVELOPMENT VARIABLES

@     VARIABLE                                         SIMULATED     MEASURED
      --------                                         ---------     --------
      Anthesis day (dap)                                      61          -99
      Physiological maturity day (dap)                       120          -99
      Yield at harvest maturity (kg [dm]/ha)                6372          -99
      Number at maturity (no/m2)                            2495          -99
      Unit wt at maturity (g [dm]/unit)                   0.2554          -99
      Number at maturity (no/unit)                         402.5          -99
      Tops weight at maturity (kg [dm]/ha)                 13161          -99
      By-product produced (stalk) at maturity (kg[dm]/ha    6847          -99
      Leaf area index, maximum                              3.68          -99
      Harvest index at maturity                            0.484          -99
      Grain N at maturity (kg/ha)                            113          -99
      Tops N at maturity (kg/ha)                             168          -99
      Stem N at maturity (kg/ha)                              54          -99
      Grain N at maturity (%)                                1.8          -99
      Tops weight at anthesis (kg [dm]/ha)                  6100          -99
      Tops N at anthesis (kg/ha)                             128          -99
      Leaf number per stem at maturity                     21.02          -99
      Emergence day (dap)                                      6          -99


*ENVIRONMENTAL AND STRESS FACTORS

 |-----Development Phase------|--------------------------------------Environment--------------------------------------|-----------------Stress-----------------|
                              |---------------Average--------------|-----Cumulative-----|--------Count of days--------|          (0=Min, 1=Max Stress)         |
                         Time  Temp  Temp  Temp Solar Photop                Evapo    Pot TMIN TMIN TMAX TMAX TMAX RAIN|----Water----|---Nitrogen--|-Phosphorus-|
                         Span   Max   Min  Mean   Rad  [day]    CO2   Rain  Trans     ET   <    <    >    >    >    >   Photo         Photo         Photo
                         days    邂    邂    邂 MJ/m2     hr    ppm     mm     mm     mm  0邂  2邂 30邂 32邂 34邂  0mm  synth Growth  synth Growth  synth Growth
----------------------------------------------------------------------------------------------------------------------------------------------------------------
 Emergence-End Juvenile    12  31.5  19.8  25.7  15.4  21.85  363.4   50.0   27.6   52.2    0    0   10    5    0    5  0.000  0.000  0.002  0.004  0.000  0.000
 End Juvenil-Floral Init    7  27.9  19.1  23.5  13.4  24.00  363.4   62.0   24.9   25.0    0    0    1    0    0    5  0.000  0.000  0.000  0.000  0.000  0.000
 Floral Init-End Lf Grow   36  30.5  18.9  24.7  15.3  24.00  363.5   84.0  122.9  136.1    0    0   22    7    0   10  0.000  0.001  0.002  0.004  0.000  0.000
 End Lf Grth-Beg Grn Fil   11  27.9  18.6  23.3  13.4  24.00  363.5  119.0   32.8   34.0    0    0    1    0    0    7  0.027  0.069  0.000  0.000  0.000  0.000
 Grain Filling Phase       45  31.7  18.2  25.0  17.1  24.00  363.7   36.0  104.6  187.8    0    0   36   13    7    7  0.440  0.494  0.000  0.000  0.000  0.000


 Planting to Harvest      120  30.8  18.7  24.7  15.8  23.42  363.5  410.0  329.8  478.1    0    0   77   30    7   38  0.175  0.200  0.001  0.002  0.000  0.000
----------------------------------------------------------------------------------------------------------------------------------------------------------------


*Resource Productivity
 Growing season length: 120 days 

 Precipitation during growing season       410.0 mm[rain]
   Dry Matter Productivity                  3.21 kg[DM]/m3[rain]          =   32.1 kg[DM]/ha per mm[rain]
   Yield Productivity                       1.55 kg[grain yield]/m3[rain] =   15.5 kg[yield]/ha per mm[rain]

 Evapotranspiration during growing season  329.8 mm[ET]
   Dry Matter Productivity                  3.99 kg[DM]/m3[ET]            =   39.9 kg[DM]/ha per mm[ET]
   Yield Productivity                       1.93 kg[grain yield]/m3[ET]   =   19.3 kg[yield]/ha per mm[ET]

 Transpiration during growing season       219.8 mm[EP]
   Dry Matter Productivity                  5.99 kg[DM]/m3[EP]            =   59.9 kg[DM]/ha per mm[EP]
   Yield Productivity                       2.90 kg[grain yield]/m3[EP]   =   29.0 kg[yield]/ha per mm[EP]

 N applied during growing season            161. kg[N applied]/ha
   Dry Matter Productivity                  81.7 kg[DM]/kg[N applied]
   Yield Productivity                       39.6 kg[yield]/kg[N applied]

 N uptake during growing season              183 kg[N uptake]/ha
   Dry Matter Productivity                  71.9 kg[DM]/kg[N uptake]
   Yield Productivity                       34.8 kg[yield]/kg[N uptake]

--------------------------------------------------------------------------------------------------------------

                     Maize YIELD :     6372 kg/ha    [Dry weight] 

**************************************************************************************************************

*DSSAT Cropping System Model Ver. 4.6.1.000 -release      OCT 24, 2017; 10:41:46
                                                                                
*RUN   2        : P04/07                    MZCER046 ANBU1997    2              
 MODEL          : MZCER046 - Maize                                              
 EXPERIMENT     : ANBU1997 MZ  Analisis a침os de bajo rendimiento Buga          
 DATA PATH      : C:\DSSAT46\maize\                                             
 TREATMENT  2   : P04/07                    MZCER046                            
                                                                                
                                                                                
 CROP           : Maize            CULTIVAR : FNC3056          ECOTYPE :IB0001  
 STARTING DATE  : MAR  8 1997                                                   
 PLANTING DATE  : APR  7 1997        PLANTS/m2 :  6.2     ROW SPACING :  80.cm  
 WEATHER        : CUNI   1997                                                   
 SOIL           : CCBUGA2017     TEXTURE : CL    -   Suelo Buga MADR Fase I     
 SOIL INITIAL C : DEPTH: 90cm EXTR. H2O: 83.9mm  NO3:  0.0kg/ha  NH4:  0.0kg/ha 
 WATER BALANCE  : RAINFED                                                       
 IRRIGATION     : NOT IRRIGATED                                                 
 NITROGEN BAL.  : SOIL-N & N-UPTAKE SIMULATION; NO N-FIXATION                   
 N-FERTILIZER   :      161 kg/ha IN     5 APPLICATIONS                          
 RESIDUE/MANURE : INITIAL :     0 kg/ha ;       0 kg/ha IN     0 APPLICATIONS   
 ENVIRONM. OPT. : DAYL=    0.00  SRAD=    0.00  TMAX=    0.00  TMIN=    0.00    
                  RAIN=    0.00  CO2 =    0.00  DEW =    0.00  WIND=    0.00    
 SIMULATION OPT : WATER   :Y  NITROGEN:Y  N-FIX:N  PHOSPH :N  PESTS  :N         
                  PHOTO   :C  ET      :R  INFIL:S  HYDROL :R  SOM    :G         
                  CO2 363ppm  NSWIT   :1  EVAP :S  SOIL   :2  STEMP  :D         
 MANAGEMENT OPT : PLANTING:R  IRRIG   :N  FERT :D  RESIDUE:R  HARVEST:M         
                  WEATHER :M  TILLAGE :N                                        
                                                                                
*SUMMARY OF SOIL AND GENETIC INPUT PARAMETERS                                   
                                                                                
   SOIL LOWER UPPER   SAT  EXTR  INIT   ROOT   BULK     pH    NO3    NH4    ORG 
  DEPTH LIMIT LIMIT    SW    SW    SW   DIST   DENS                          C  
   cm   cm3/cm3    cm3/cm3    cm3/cm3         g/cm3         ugN/g  ugN/g     %  
------------------------------------------------------------------------------- 
  0-  5 0.215 0.331 0.341 0.116 0.331   1.00   1.68   6.70   0.00   0.00   0.75 
  5- 15 0.215 0.331 0.341 0.116 0.331   1.00   1.68   6.70   0.00   0.00   0.75 
 15- 25 0.215 0.331 0.341 0.116 0.331   1.00   1.68   6.70   0.00   0.00   0.75 
 25- 35 0.181 0.291 0.364 0.110 0.291   0.50   1.61   7.20   0.00   0.00   0.53 
 35- 45 0.181 0.291 0.364 0.110 0.291   0.50   1.61   7.20   0.00   0.00   0.53 
 45- 67 0.096 0.169 0.404 0.073 0.169   0.27   1.51   7.00   0.00   0.00   0.05 
 67- 90 0.096 0.169 0.404 0.073 0.169   0.27   1.51   7.00   0.00   0.00   0.05 
                                                                                
TOT- 90  13.3  21.7  34.0   8.4  21.7  <--cm   -  kg/ha-->    0.0    0.0  51964 
SOIL ALBEDO    : 0.09      EVAPORATION LIMIT : 6.00         MIN. FACTOR  : 1.00 
RUNOFF CURVE # :76.00      DRAINAGE RATE     : 0.60         FERT. FACTOR : 1.00 
                                                                                
 Maize      CULTIVAR :CI0003-FNC3056            ECOTYPE :IB0001                 
 P1     : 233.00  P2     : 0.5000  P5     : 976.00                              
 G2     : 956.00  G3     :  7.500  PHINT  : 45.600                              


*SIMULATED CROP AND SOIL STATUS AT MAIN DEVELOPMENT STAGES

 RUN NO.     2     P04/07                  

        CROP GROWTH     BIOMASS         LEAF   CROP N     STRESS      STRESS                                           
   DATE  AGE STAGE        kg/ha    LAI   NUM  kg/ha  %   H2O  Nitr Phos1 Phos2  RSTG                                   
 ------  --- ----------   -----  -----  ----  ---  ---  ----  ----  ----  ----  ----                                   
  8 MAR    0 Start Sim        0   0.00   0.0    0  0.0  0.00  0.00  0.00  0.00     7
  7 APR    0 Sowing           0   0.00   0.0    0  0.0  0.00  0.00  0.00  0.00     8
  8 APR    1 Germinate        0   0.00   0.0    0  0.0  0.00  0.00  0.00  0.00     9
 13 APR    6 Emergence       25   0.00   2.1    1  4.4  0.00  0.01  0.00  0.00     1
 26 APR   19 End Juveni      72   0.16   7.6    3  3.5  0.00  0.00  0.00  0.00     2
  4 MAY   27 Floral Ini     381   0.67  10.7   14  3.6  0.00  0.00  0.00  0.00     3
 12 JUN   66 75% Silkin    6314   3.73  22.3  130  2.1  0.03  0.00  0.00  0.00     4
 23 JUN   77 Beg Gr Fil    8753   3.52  22.3  131  1.5  0.00  0.00  0.00  0.00     5
  6 AUG  121 End Gr Fil   13891   1.21  22.3  163  1.2  0.54  0.00  0.00  0.00     6
  8 AUG  123 Maturity     13891   1.21  22.3  163  1.2  0.74  0.00  0.00  0.00    10
  8 AUG  123 Harvest      13891   1.21  22.3  163  1.2  0.00  0.00  0.00  0.00    10


*MAIN GROWTH AND DEVELOPMENT VARIABLES

@     VARIABLE                                         SIMULATED     MEASURED
      --------                                         ---------     --------
      Anthesis day (dap)                                      66          -99
      Physiological maturity day (dap)                       123          -99
      Yield at harvest maturity (kg [dm]/ha)                6428          -99
      Number at maturity (no/m2)                            2945          -99
      Unit wt at maturity (g [dm]/unit)                   0.2182          -99
      Number at maturity (no/unit)                         475.1          -99
      Tops weight at maturity (kg [dm]/ha)                 13891          -99
      By-product produced (stalk) at maturity (kg[dm]/ha    7527          -99
      Leaf area index, maximum                              3.85          -99
      Harvest index at maturity                            0.463          -99
      Grain N at maturity (kg/ha)                            114          -99
      Tops N at maturity (kg/ha)                             163          -99
      Stem N at maturity (kg/ha)                              48          -99
      Grain N at maturity (%)                                1.8          -99
      Tops weight at anthesis (kg [dm]/ha)                  6094          -99
      Tops N at anthesis (kg/ha)                             128          -99
      Leaf number per stem at maturity                     22.27          -99
      Emergence day (dap)                                      6          -99


*ENVIRONMENTAL AND STRESS FACTORS

 |-----Development Phase------|--------------------------------------Environment--------------------------------------|-----------------Stress-----------------|
                              |---------------Average--------------|-----Cumulative-----|--------Count of days--------|          (0=Min, 1=Max Stress)         |
                         Time  Temp  Temp  Temp Solar Photop                Evapo    Pot TMIN TMIN TMAX TMAX TMAX RAIN|----Water----|---Nitrogen--|-Phosphorus-|
                         Span   Max   Min  Mean   Rad  [day]    CO2   Rain  Trans     ET   <    <    >    >    >    >   Photo         Photo         Photo
                         days    邂    邂    邂 MJ/m2     hr    ppm     mm     mm     mm  0邂  2邂 30邂 32邂 34邂  0mm  synth Growth  synth Growth  synth Growth
----------------------------------------------------------------------------------------------------------------------------------------------------------------
 Emergence-End Juvenile    13  29.8  19.6  24.7  14.5  23.76  363.4   79.0   41.6   52.5    0    0    8    3    0    7  0.000  0.000  0.002  0.004  0.000  0.000
 End Juvenil-Floral Init    8  31.3  18.6  24.9  18.0  24.00  363.4   26.0   25.1   39.2    0    0    5    3    0    1  0.000  0.000  0.000  0.001  0.000  0.000
 Floral Init-End Lf Grow   39  29.6  18.9  24.3  14.2  24.00  363.5  201.0  126.0  134.6    0    0   18    4    0   16  0.005  0.025  0.002  0.004  0.000  0.000
 End Lf Grth-Beg Grn Fil   11  30.2  18.7  24.4  15.4  24.00  363.6   10.0   39.7   39.8    0    0    6    0    0    2  0.000  0.000  0.000  0.000  0.000  0.000
 Grain Filling Phase       44  32.2  18.0  25.1  17.8  24.00  363.7   78.0  103.0  194.0    0    0   39   19    8    9  0.468  0.528  0.000  0.000  0.000  0.000


 Planting to Harvest      123  30.9  18.7  24.8  16.0  23.74  363.6  401.0  346.6  495.8    0    0   81   33    9   37  0.178  0.208  0.001  0.002  0.000  0.000
----------------------------------------------------------------------------------------------------------------------------------------------------------------


*Resource Productivity
 Growing season length: 123 days 

 Precipitation during growing season       401.0 mm[rain]
   Dry Matter Productivity                  3.46 kg[DM]/m3[rain]          =   34.6 kg[DM]/ha per mm[rain]
   Yield Productivity                       1.60 kg[grain yield]/m3[rain] =   16.0 kg[yield]/ha per mm[rain]

 Evapotranspiration during growing season  346.6 mm[ET]
   Dry Matter Productivity                  4.01 kg[DM]/m3[ET]            =   40.1 kg[DM]/ha per mm[ET]
   Yield Productivity                       1.85 kg[grain yield]/m3[ET]   =   18.5 kg[yield]/ha per mm[ET]

 Transpiration during growing season       223.4 mm[EP]
   Dry Matter Productivity                  6.22 kg[DM]/m3[EP]            =   62.2 kg[DM]/ha per mm[EP]
   Yield Productivity                       2.88 kg[grain yield]/m3[EP]   =   28.8 kg[yield]/ha per mm[EP]

 N applied during growing season            161. kg[N applied]/ha
   Dry Matter Productivity                  86.3 kg[DM]/kg[N applied]
   Yield Productivity                       39.9 kg[yield]/kg[N applied]

 N uptake during growing season              179 kg[N uptake]/ha
   Dry Matter Productivity                  77.6 kg[DM]/kg[N uptake]
   Yield Productivity                       35.9 kg[yield]/kg[N uptake]

--------------------------------------------------------------------------------------------------------------

                     Maize YIELD :     6428 kg/ha    [Dry weight] 

**************************************************************************************************************

*DSSAT Cropping System Model Ver. 4.6.1.000 -release      OCT 24, 2017; 10:41:46
                                                                                
*RUN   3        : P04/12                    MZCER046 ANBU1997    3              
 MODEL          : MZCER046 - Maize                                              
 EXPERIMENT     : ANBU1997 MZ  Analisis a침os de bajo rendimiento Buga          
 DATA PATH      : C:\DSSAT46\maize\                                             
 TREATMENT  3   : P04/12                    MZCER046                            
                                                                                
                                                                                
 CROP           : Maize            CULTIVAR : FNC3056          ECOTYPE :IB0001  
 STARTING DATE  : MAR 13 1997                                                   
 PLANTING DATE  : APR 12 1997        PLANTS/m2 :  6.2     ROW SPACING :  80.cm  
 WEATHER        : CUNI   1997                                                   
 SOIL           : CCBUGA2017     TEXTURE : CL    -   Suelo Buga MADR Fase I     
 SOIL INITIAL C : DEPTH: 90cm EXTR. H2O: 83.9mm  NO3:  0.0kg/ha  NH4:  0.0kg/ha 
 WATER BALANCE  : RAINFED                                                       
 IRRIGATION     : NOT IRRIGATED                                                 
 NITROGEN BAL.  : SOIL-N & N-UPTAKE SIMULATION; NO N-FIXATION                   
 N-FERTILIZER   :      161 kg/ha IN     5 APPLICATIONS                          
 RESIDUE/MANURE : INITIAL :     0 kg/ha ;       0 kg/ha IN     0 APPLICATIONS   
 ENVIRONM. OPT. : DAYL=    0.00  SRAD=    0.00  TMAX=    0.00  TMIN=    0.00    
                  RAIN=    0.00  CO2 =    0.00  DEW =    0.00  WIND=    0.00    
 SIMULATION OPT : WATER   :Y  NITROGEN:Y  N-FIX:N  PHOSPH :N  PESTS  :N         
                  PHOTO   :C  ET      :R  INFIL:S  HYDROL :R  SOM    :G         
                  CO2 363ppm  NSWIT   :1  EVAP :S  SOIL   :2  STEMP  :D         
 MANAGEMENT OPT : PLANTING:R  IRRIG   :N  FERT :D  RESIDUE:R  HARVEST:M         
                  WEATHER :M  TILLAGE :N                                        
                                                                                
*SUMMARY OF SOIL AND GENETIC INPUT PARAMETERS                                   
                                                                                
   SOIL LOWER UPPER   SAT  EXTR  INIT   ROOT   BULK     pH    NO3    NH4    ORG 
  DEPTH LIMIT LIMIT    SW    SW    SW   DIST   DENS                          C  
   cm   cm3/cm3    cm3/cm3    cm3/cm3         g/cm3         ugN/g  ugN/g     %  
------------------------------------------------------------------------------- 
  0-  5 0.215 0.331 0.341 0.116 0.331   1.00   1.68   6.70   0.00   0.00   0.75 
  5- 15 0.215 0.331 0.341 0.116 0.331   1.00   1.68   6.70   0.00   0.00   0.75 
 15- 25 0.215 0.331 0.341 0.116 0.331   1.00   1.68   6.70   0.00   0.00   0.75 
 25- 35 0.181 0.291 0.364 0.110 0.291   0.50   1.61   7.20   0.00   0.00   0.53 
 35- 45 0.181 0.291 0.364 0.110 0.291   0.50   1.61   7.20   0.00   0.00   0.53 
 45- 67 0.096 0.169 0.404 0.073 0.169   0.27   1.51   7.00   0.00   0.00   0.05 
 67- 90 0.096 0.169 0.404 0.073 0.169   0.27   1.51   7.00   0.00   0.00   0.05 
                                                                                
TOT- 90  13.3  21.7  34.0   8.4  21.7  <--cm   -  kg/ha-->    0.0    0.0  51964 
SOIL ALBEDO    : 0.09      EVAPORATION LIMIT : 6.00         MIN. FACTOR  : 1.00 
RUNOFF CURVE # :76.00      DRAINAGE RATE     : 0.60         FERT. FACTOR : 1.00 
                                                                                
 Maize      CULTIVAR :CI0003-FNC3056            ECOTYPE :IB0001                 
 P1     : 233.00  P2     : 0.5000  P5     : 976.00                              
 G2     : 956.00  G3     :  7.500  PHINT  : 45.600                              


*SIMULATED CROP AND SOIL STATUS AT MAIN DEVELOPMENT STAGES

 RUN NO.     3     P04/12                  

        CROP GROWTH     BIOMASS         LEAF   CROP N     STRESS      STRESS                                           
   DATE  AGE STAGE        kg/ha    LAI   NUM  kg/ha  %   H2O  Nitr Phos1 Phos2  RSTG                                   
 ------  --- ----------   -----  -----  ----  ---  ---  ----  ----  ----  ----  ----                                   
 13 MAR    0 Start Sim        0   0.00   0.0    0  0.0  0.00  0.00  0.00  0.00     7
 12 APR    0 Sowing           0   0.00   0.0    0  0.0  0.00  0.00  0.00  0.00     8
 13 APR    1 Germinate        0   0.00   0.0    0  0.0  0.00  0.00  0.00  0.00     9
 18 APR    6 Emergence       25   0.00   2.1    1  4.4  0.00  0.01  0.00  0.00     1
  1 MAY   19 End Juveni      89   0.19   7.5    3  3.2  0.00  0.00  0.00  0.00     2
  9 MAY   27 Floral Ini     411   0.71  10.7   15  3.6  0.00  0.00  0.00  0.00     3
 18 JUN   67 75% Silkin    6530   3.76  22.3  128  2.0  0.03  0.00  0.00  0.00     4
 28 JUN   77 Beg Gr Fil    8682   3.56  22.3  128  1.5  0.00  0.00  0.00  0.00     5
 11 AUG  121 End Gr Fil   13108   1.07  22.3  148  1.1  0.63  0.00  0.00  0.00     6
 14 AUG  124 Maturity     13108   1.07  22.3  148  1.1  0.86  0.00  0.00  0.00    10
 14 AUG  124 Harvest      13108   1.07  22.3  148  1.1  0.00  0.00  0.00  0.00    10


*MAIN GROWTH AND DEVELOPMENT VARIABLES

@     VARIABLE                                         SIMULATED     MEASURED
      --------                                         ---------     --------
      Anthesis day (dap)                                      67          -99
      Physiological maturity day (dap)                       124          -99
      Yield at harvest maturity (kg [dm]/ha)                5526          -99
      Number at maturity (no/m2)                            2846          -99
      Unit wt at maturity (g [dm]/unit)                   0.1942          -99
      Number at maturity (no/unit)                         459.0          -99
      Tops weight at maturity (kg [dm]/ha)                 13108          -99
      By-product produced (stalk) at maturity (kg[dm]/ha    7646          -99
      Leaf area index, maximum                              3.85          -99
      Harvest index at maturity                            0.422          -99
      Grain N at maturity (kg/ha)                             99          -99
      Tops N at maturity (kg/ha)                             148          -99
      Stem N at maturity (kg/ha)                              48          -99
      Grain N at maturity (%)                                1.8          -99
      Tops weight at anthesis (kg [dm]/ha)                  6362          -99
      Tops N at anthesis (kg/ha)                             128          -99
      Leaf number per stem at maturity                     22.34          -99
      Emergence day (dap)                                      6          -99


*ENVIRONMENTAL AND STRESS FACTORS

 |-----Development Phase------|--------------------------------------Environment--------------------------------------|-----------------Stress-----------------|
                              |---------------Average--------------|-----Cumulative-----|--------Count of days--------|          (0=Min, 1=Max Stress)         |
                         Time  Temp  Temp  Temp Solar Photop                Evapo    Pot TMIN TMIN TMAX TMAX TMAX RAIN|----Water----|---Nitrogen--|-Phosphorus-|
                         Span   Max   Min  Mean   Rad  [day]    CO2   Rain  Trans     ET   <    <    >    >    >    >   Photo         Photo         Photo
                         days    邂    邂    邂 MJ/m2     hr    ppm     mm     mm     mm  0邂  2邂 30邂 32邂 34邂  0mm  synth Growth  synth Growth  synth Growth
----------------------------------------------------------------------------------------------------------------------------------------------------------------
 Emergence-End Juvenile    13  29.7  19.3  24.5  14.8  24.00  363.4   71.0   41.7   53.5    0    0    5    3    0    7  0.000  0.000  0.002  0.004  0.000  0.000
 End Juvenil-Floral Init    8  31.5  18.2  24.8  17.3  24.00  363.4   14.0   15.6   37.3    0    0    7    3    0    2  0.000  0.000  0.000  0.001  0.000  0.000
 Floral Init-End Lf Grow   40  29.4  19.0  24.2  13.9  24.00  363.5  197.0  129.7  134.9    0    0   17    2    0   16  0.016  0.032  0.000  0.000  0.000  0.000
 End Lf Grth-Beg Grn Fil   10  30.4  18.3  24.3  14.7  24.00  363.7    8.0   34.6   34.7    0    0    5    1    0    3  0.000  0.000  0.000  0.000  0.000  0.000
 Grain Filling Phase       44  32.6  18.0  25.3  18.4  24.00  363.7   70.0   96.0  201.4    0    0   42   22   10    6  0.536  0.608  0.000  0.000  0.000  0.000


 Planting to Harvest      124  31.0  18.6  24.8  16.2  23.95  363.6  396.0  339.6  505.9    0    0   85   36   10   36  0.214  0.247  0.000  0.000  0.000  0.000
----------------------------------------------------------------------------------------------------------------------------------------------------------------


*Resource Productivity
 Growing season length: 124 days 

 Precipitation during growing season       396.0 mm[rain]
   Dry Matter Productivity                  3.31 kg[DM]/m3[rain]          =   33.1 kg[DM]/ha per mm[rain]
   Yield Productivity                       1.40 kg[grain yield]/m3[rain] =   14.0 kg[yield]/ha per mm[rain]

 Evapotranspiration during growing season  339.6 mm[ET]
   Dry Matter Productivity                  3.86 kg[DM]/m3[ET]            =   38.6 kg[DM]/ha per mm[ET]
   Yield Productivity                       1.63 kg[grain yield]/m3[ET]   =   16.3 kg[yield]/ha per mm[ET]

 Transpiration during growing season       208.7 mm[EP]
   Dry Matter Productivity                  6.28 kg[DM]/m3[EP]            =   62.8 kg[DM]/ha per mm[EP]
   Yield Productivity                       2.65 kg[grain yield]/m3[EP]   =   26.5 kg[yield]/ha per mm[EP]

 N applied during growing season            161. kg[N applied]/ha
   Dry Matter Productivity                  81.4 kg[DM]/kg[N applied]
   Yield Productivity                       34.3 kg[yield]/kg[N applied]

 N uptake during growing season              162 kg[N uptake]/ha
   Dry Matter Productivity                  80.9 kg[DM]/kg[N uptake]
   Yield Productivity                       34.1 kg[yield]/kg[N uptake]

--------------------------------------------------------------------------------------------------------------

                     Maize YIELD :     5526 kg/ha    [Dry weight] 

**************************************************************************************************************

*DSSAT Cropping System Model Ver. 4.6.1.000 -release      OCT 24, 2017; 10:41:46
                                                                                
*RUN   4        : P04/17                    MZCER046 ANBU1997    4              
 MODEL          : MZCER046 - Maize                                              
 EXPERIMENT     : ANBU1997 MZ  Analisis a침os de bajo rendimiento Buga          
 DATA PATH      : C:\DSSAT46\maize\                                             
 TREATMENT  4   : P04/17                    MZCER046                            
                                                                                
                                                                                
 CROP           : Maize            CULTIVAR : FNC3056          ECOTYPE :IB0001  
 STARTING DATE  : MAR 18 1997                                                   
 PLANTING DATE  : APR 17 1997        PLANTS/m2 :  6.2     ROW SPACING :  80.cm  
 WEATHER        : CUNI   1997                                                   
 SOIL           : CCBUGA2017     TEXTURE : CL    -   Suelo Buga MADR Fase I     
 SOIL INITIAL C : DEPTH: 90cm EXTR. H2O: 83.9mm  NO3:  0.0kg/ha  NH4:  0.0kg/ha 
 WATER BALANCE  : RAINFED                                                       
 IRRIGATION     : NOT IRRIGATED                                                 
 NITROGEN BAL.  : SOIL-N & N-UPTAKE SIMULATION; NO N-FIXATION                   
 N-FERTILIZER   :      161 kg/ha IN     5 APPLICATIONS                          
 RESIDUE/MANURE : INITIAL :     0 kg/ha ;       0 kg/ha IN     0 APPLICATIONS   
 ENVIRONM. OPT. : DAYL=    0.00  SRAD=    0.00  TMAX=    0.00  TMIN=    0.00    
                  RAIN=    0.00  CO2 =    0.00  DEW =    0.00  WIND=    0.00    
 SIMULATION OPT : WATER   :Y  NITROGEN:Y  N-FIX:N  PHOSPH :N  PESTS  :N         
                  PHOTO   :C  ET      :R  INFIL:S  HYDROL :R  SOM    :G         
                  CO2 363ppm  NSWIT   :1  EVAP :S  SOIL   :2  STEMP  :D         
 MANAGEMENT OPT : PLANTING:R  IRRIG   :N  FERT :D  RESIDUE:R  HARVEST:M         
                  WEATHER :M  TILLAGE :N                                        
                                                                                
*SUMMARY OF SOIL AND GENETIC INPUT PARAMETERS                                   
                                                                                
   SOIL LOWER UPPER   SAT  EXTR  INIT   ROOT   BULK     pH    NO3    NH4    ORG 
  DEPTH LIMIT LIMIT    SW    SW    SW   DIST   DENS                          C  
   cm   cm3/cm3    cm3/cm3    cm3/cm3         g/cm3         ugN/g  ugN/g     %  
------------------------------------------------------------------------------- 
  0-  5 0.215 0.331 0.341 0.116 0.331   1.00   1.68   6.70   0.00   0.00   0.75 
  5- 15 0.215 0.331 0.341 0.116 0.331   1.00   1.68   6.70   0.00   0.00   0.75 
 15- 25 0.215 0.331 0.341 0.116 0.331   1.00   1.68   6.70   0.00   0.00   0.75 
 25- 35 0.181 0.291 0.364 0.110 0.291   0.50   1.61   7.20   0.00   0.00   0.53 
 35- 45 0.181 0.291 0.364 0.110 0.291   0.50   1.61   7.20   0.00   0.00   0.53 
 45- 67 0.096 0.169 0.404 0.073 0.169   0.27   1.51   7.00   0.00   0.00   0.05 
 67- 90 0.096 0.169 0.404 0.073 0.169   0.27   1.51   7.00   0.00   0.00   0.05 
                                                                                
TOT- 90  13.3  21.7  34.0   8.4  21.7  <--cm   -  kg/ha-->    0.0    0.0  51964 
SOIL ALBEDO    : 0.09      EVAPORATION LIMIT : 6.00         MIN. FACTOR  : 1.00 
RUNOFF CURVE # :76.00      DRAINAGE RATE     : 0.60         FERT. FACTOR : 1.00 
                                                                                
 Maize      CULTIVAR :CI0003-FNC3056            ECOTYPE :IB0001                 
 P1     : 233.00  P2     : 0.5000  P5     : 976.00                              
 G2     : 956.00  G3     :  7.500  PHINT  : 45.600                              


*SIMULATED CROP AND SOIL STATUS AT MAIN DEVELOPMENT STAGES

 RUN NO.     4     P04/17                  

        CROP GROWTH     BIOMASS         LEAF   CROP N     STRESS      STRESS                                           
   DATE  AGE STAGE        kg/ha    LAI   NUM  kg/ha  %   H2O  Nitr Phos1 Phos2  RSTG                                   
 ------  --- ----------   -----  -----  ----  ---  ---  ----  ----  ----  ----  ----                                   
 18 MAR    0 Start Sim        0   0.00   0.0    0  0.0  0.00  0.00  0.00  0.00     7
 17 APR    0 Sowing           0   0.00   0.0    0  0.0  0.00  0.00  0.00  0.00     8
 18 APR    1 Germinate        0   0.00   0.0    0  0.0  0.00  0.00  0.00  0.00     9
 23 APR    6 Emergence       25   0.00   2.1    1  4.4  0.00  0.01  0.00  0.00     1
  6 MAY   19 End Juveni     112   0.24   7.6    4  3.3  0.00  0.00  0.00  0.00     2
 14 MAY   27 Floral Ini     382   0.67  10.7   14  3.6  0.00  0.00  0.00  0.00     3
 22 JUN   66 75% Silkin    6907   3.79  22.0  137  2.0  0.05  0.00  0.00  0.00     4
  2 JUL   76 Beg Gr Fil    8786   3.52  22.0  137  1.6  0.18  0.00  0.00  0.00     5
 15 AUG  120 End Gr Fil   12285   0.87  22.0  141  1.1  0.71  0.00  0.00  0.00     6
 18 AUG  123 Maturity     12285   0.87  22.0  141  1.1  0.89  0.00  0.00  0.00    10
 18 AUG  123 Harvest      12285   0.87  22.0  141  1.1  0.00  0.00  0.00  0.00    10


*MAIN GROWTH AND DEVELOPMENT VARIABLES

@     VARIABLE                                         SIMULATED     MEASURED
      --------                                         ---------     --------
      Anthesis day (dap)                                      66          -99
      Physiological maturity day (dap)                       123          -99
      Yield at harvest maturity (kg [dm]/ha)                4936          -99
      Number at maturity (no/m2)                            2743          -99
      Unit wt at maturity (g [dm]/unit)                   0.1799          -99
      Number at maturity (no/unit)                         442.5          -99
      Tops weight at maturity (kg [dm]/ha)                 12285          -99
      By-product produced (stalk) at maturity (kg[dm]/ha    7412          -99
      Leaf area index, maximum                              3.83          -99
      Harvest index at maturity                            0.402          -99
      Grain N at maturity (kg/ha)                             90          -99
      Tops N at maturity (kg/ha)                             141          -99
      Stem N at maturity (kg/ha)                              51          -99
      Grain N at maturity (%)                                1.8          -99
      Tops weight at anthesis (kg [dm]/ha)                  6571          -99
      Tops N at anthesis (kg/ha)                             134          -99
      Leaf number per stem at maturity                     22.00          -99
      Emergence day (dap)                                      6          -99


*ENVIRONMENTAL AND STRESS FACTORS

 |-----Development Phase------|--------------------------------------Environment--------------------------------------|-----------------Stress-----------------|
                              |---------------Average--------------|-----Cumulative-----|--------Count of days--------|          (0=Min, 1=Max Stress)         |
                         Time  Temp  Temp  Temp Solar Photop                Evapo    Pot TMIN TMIN TMAX TMAX TMAX RAIN|----Water----|---Nitrogen--|-Phosphorus-|
                         Span   Max   Min  Mean   Rad  [day]    CO2   Rain  Trans     ET   <    <    >    >    >    >   Photo         Photo         Photo
                         days    邂    邂    邂 MJ/m2     hr    ppm     mm     mm     mm  0邂  2邂 30邂 32邂 34邂  0mm  synth Growth  synth Growth  synth Growth
----------------------------------------------------------------------------------------------------------------------------------------------------------------
 Emergence-End Juvenile    13  30.5  18.5  24.5  17.3  24.00  363.4   35.0   36.6   62.4    0    0    7    4    0    3  0.000  0.000  0.002  0.006  0.000  0.000
 End Juvenil-Floral Init    8  30.5  19.0  24.8  15.1  24.00  363.4   51.0   23.7   32.6    0    0    6    1    0    5  0.000  0.000  0.000  0.000  0.000  0.000
 Floral Init-End Lf Grow   39  29.5  18.9  24.2  14.1  24.00  363.6  158.0  123.9  132.7    0    0   16    2    0   12  0.027  0.044  0.000  0.000  0.000  0.000
 End Lf Grth-Beg Grn Fil   10  30.6  18.0  24.3  16.0  24.00  363.7   25.0   33.6   37.6    0    0    6    1    0    5  0.099  0.205  0.000  0.000  0.000  0.000
 Grain Filling Phase       44  32.7  18.1  25.4  18.3  24.00  363.8   55.2   79.4  203.0    0    0   43   25   10    6  0.622  0.688  0.000  0.000  0.000  0.000


 Planting to Harvest      123  31.0  18.5  24.8  16.1  24.00  363.6  362.2  311.6  501.2    0    0   84   37   10   36  0.260  0.299  0.000  0.001  0.000  0.000
----------------------------------------------------------------------------------------------------------------------------------------------------------------


*Resource Productivity
 Growing season length: 123 days 

 Precipitation during growing season       362.2 mm[rain]
   Dry Matter Productivity                  3.39 kg[DM]/m3[rain]          =   33.9 kg[DM]/ha per mm[rain]
   Yield Productivity                       1.36 kg[grain yield]/m3[rain] =   13.6 kg[yield]/ha per mm[rain]

 Evapotranspiration during growing season  311.6 mm[ET]
   Dry Matter Productivity                  3.94 kg[DM]/m3[ET]            =   39.4 kg[DM]/ha per mm[ET]
   Yield Productivity                       1.58 kg[grain yield]/m3[ET]   =   15.8 kg[yield]/ha per mm[ET]

 Transpiration during growing season       186.3 mm[EP]
   Dry Matter Productivity                  6.59 kg[DM]/m3[EP]            =   65.9 kg[DM]/ha per mm[EP]
   Yield Productivity                       2.65 kg[grain yield]/m3[EP]   =   26.5 kg[yield]/ha per mm[EP]

 N applied during growing season            161. kg[N applied]/ha
   Dry Matter Productivity                  76.3 kg[DM]/kg[N applied]
   Yield Productivity                       30.7 kg[yield]/kg[N applied]

 N uptake during growing season              151 kg[N uptake]/ha
   Dry Matter Productivity                  81.4 kg[DM]/kg[N uptake]
   Yield Productivity                       32.7 kg[yield]/kg[N uptake]

--------------------------------------------------------------------------------------------------------------

                     Maize YIELD :     4936 kg/ha    [Dry weight] 

**************************************************************************************************************

*DSSAT Cropping System Model Ver. 4.6.1.000 -release      OCT 24, 2017; 10:41:46
                                                                                
*RUN   5        : P04/22                    MZCER046 ANBU1997    5              
 MODEL          : MZCER046 - Maize                                              
 EXPERIMENT     : ANBU1997 MZ  Analisis a침os de bajo rendimiento Buga          
 DATA PATH      : C:\DSSAT46\maize\                                             
 TREATMENT  5   : P04/22                    MZCER046                            
                                                                                
                                                                                
 CROP           : Maize            CULTIVAR : FNC3056          ECOTYPE :IB0001  
 STARTING DATE  : MAR 23 1997                                                   
 PLANTING DATE  : APR 22 1997        PLANTS/m2 :  6.2     ROW SPACING :  80.cm  
 WEATHER        : CUNI   1997                                                   
 SOIL           : CCBUGA2017     TEXTURE : CL    -   Suelo Buga MADR Fase I     
 SOIL INITIAL C : DEPTH: 90cm EXTR. H2O: 83.9mm  NO3:  0.0kg/ha  NH4:  0.0kg/ha 
 WATER BALANCE  : RAINFED                                                       
 IRRIGATION     : NOT IRRIGATED                                                 
 NITROGEN BAL.  : SOIL-N & N-UPTAKE SIMULATION; NO N-FIXATION                   
 N-FERTILIZER   :      161 kg/ha IN     5 APPLICATIONS                          
 RESIDUE/MANURE : INITIAL :     0 kg/ha ;       0 kg/ha IN     0 APPLICATIONS   
 ENVIRONM. OPT. : DAYL=    0.00  SRAD=    0.00  TMAX=    0.00  TMIN=    0.00    
                  RAIN=    0.00  CO2 =    0.00  DEW =    0.00  WIND=    0.00    
 SIMULATION OPT : WATER   :Y  NITROGEN:Y  N-FIX:N  PHOSPH :N  PESTS  :N         
                  PHOTO   :C  ET      :R  INFIL:S  HYDROL :R  SOM    :G         
                  CO2 363ppm  NSWIT   :1  EVAP :S  SOIL   :2  STEMP  :D         
 MANAGEMENT OPT : PLANTING:R  IRRIG   :N  FERT :D  RESIDUE:R  HARVEST:M         
                  WEATHER :M  TILLAGE :N                                        
                                                                                
*SUMMARY OF SOIL AND GENETIC INPUT PARAMETERS                                   
                                                                                
   SOIL LOWER UPPER   SAT  EXTR  INIT   ROOT   BULK     pH    NO3    NH4    ORG 
  DEPTH LIMIT LIMIT    SW    SW    SW   DIST   DENS                          C  
   cm   cm3/cm3    cm3/cm3    cm3/cm3         g/cm3         ugN/g  ugN/g     %  
------------------------------------------------------------------------------- 
  0-  5 0.215 0.331 0.341 0.116 0.331   1.00   1.68   6.70   0.00   0.00   0.75 
  5- 15 0.215 0.331 0.341 0.116 0.331   1.00   1.68   6.70   0.00   0.00   0.75 
 15- 25 0.215 0.331 0.341 0.116 0.331   1.00   1.68   6.70   0.00   0.00   0.75 
 25- 35 0.181 0.291 0.364 0.110 0.291   0.50   1.61   7.20   0.00   0.00   0.53 
 35- 45 0.181 0.291 0.364 0.110 0.291   0.50   1.61   7.20   0.00   0.00   0.53 
 45- 67 0.096 0.169 0.404 0.073 0.169   0.27   1.51   7.00   0.00   0.00   0.05 
 67- 90 0.096 0.169 0.404 0.073 0.169   0.27   1.51   7.00   0.00   0.00   0.05 
                                                                                
TOT- 90  13.3  21.7  34.0   8.4  21.7  <--cm   -  kg/ha-->    0.0    0.0  51964 
SOIL ALBEDO    : 0.09      EVAPORATION LIMIT : 6.00         MIN. FACTOR  : 1.00 
RUNOFF CURVE # :76.00      DRAINAGE RATE     : 0.60         FERT. FACTOR : 1.00 
                                                                                
 Maize      CULTIVAR :CI0003-FNC3056            ECOTYPE :IB0001                 
 P1     : 233.00  P2     : 0.5000  P5     : 976.00                              
 G2     : 956.00  G3     :  7.500  PHINT  : 45.600                              


*SIMULATED CROP AND SOIL STATUS AT MAIN DEVELOPMENT STAGES

 RUN NO.     5     P04/22                  

        CROP GROWTH     BIOMASS         LEAF   CROP N     STRESS      STRESS                                           
   DATE  AGE STAGE        kg/ha    LAI   NUM  kg/ha  %   H2O  Nitr Phos1 Phos2  RSTG                                   
 ------  --- ----------   -----  -----  ----  ---  ---  ----  ----  ----  ----  ----                                   
 23 MAR    0 Start Sim        0   0.00   0.0    0  0.0  0.00  0.00  0.00  0.00     7
 22 APR    0 Sowing           0   0.00   0.0    0  0.0  0.00  0.00  0.00  0.00     8
 23 APR    1 Germinate        0   0.00   0.0    0  0.0  0.00  0.00  0.00  0.00     9
 28 APR    6 Emergence       25   0.00   2.1    1  4.4  0.00  0.01  0.00  0.00     1
 11 MAY   19 End Juveni      99   0.21   7.7    4  3.7  0.00  0.00  0.00  0.00     2
 19 MAY   27 Floral Ini     410   0.71  10.8   15  3.6  0.00  0.00  0.00  0.00     3
 27 JUN   66 75% Silkin    6978   3.83  22.4  143  2.0  0.00  0.00  0.00  0.00     4
  8 JUL   77 Beg Gr Fil    8800   3.11  22.4  144  1.6  0.49  0.00  0.00  0.00     5
 20 AUG  120 End Gr Fil   11717   0.74  22.4  144  1.2  0.73  0.00  0.00  0.00     6
 23 AUG  123 Maturity     11717   0.74  22.4  144  1.2  0.95  0.00  0.00  0.00    10
 23 AUG  123 Harvest      11717   0.74  22.4  144  1.2  0.00  0.00  0.00  0.00    10


*MAIN GROWTH AND DEVELOPMENT VARIABLES

@     VARIABLE                                         SIMULATED     MEASURED
      --------                                         ---------     --------
      Anthesis day (dap)                                      66          -99
      Physiological maturity day (dap)                       123          -99
      Yield at harvest maturity (kg [dm]/ha)                4586          -99
      Number at maturity (no/m2)                            2561          -99
      Unit wt at maturity (g [dm]/unit)                   0.1791          -99
      Number at maturity (no/unit)                         413.0          -99
      Tops weight at maturity (kg [dm]/ha)                 11717          -99
      By-product produced (stalk) at maturity (kg[dm]/ha    7197          -99
      Leaf area index, maximum                              3.99          -99
      Harvest index at maturity                            0.391          -99
      Grain N at maturity (kg/ha)                             84          -99
      Tops N at maturity (kg/ha)                             144          -99
      Stem N at maturity (kg/ha)                              60          -99
      Grain N at maturity (%)                                1.8          -99
      Tops weight at anthesis (kg [dm]/ha)                  6717          -99
      Tops N at anthesis (kg/ha)                             140          -99
      Leaf number per stem at maturity                     22.43          -99
      Emergence day (dap)                                      6          -99


*ENVIRONMENTAL AND STRESS FACTORS

 |-----Development Phase------|--------------------------------------Environment--------------------------------------|-----------------Stress-----------------|
                              |---------------Average--------------|-----Cumulative-----|--------Count of days--------|          (0=Min, 1=Max Stress)         |
                         Time  Temp  Temp  Temp Solar Photop                Evapo    Pot TMIN TMIN TMAX TMAX TMAX RAIN|----Water----|---Nitrogen--|-Phosphorus-|
                         Span   Max   Min  Mean   Rad  [day]    CO2   Rain  Trans     ET   <    <    >    >    >    >   Photo         Photo         Photo
                         days    邂    邂    邂 MJ/m2     hr    ppm     mm     mm     mm  0邂  2邂 30邂 32邂 34邂  0mm  synth Growth  synth Growth  synth Growth
----------------------------------------------------------------------------------------------------------------------------------------------------------------
 Emergence-End Juvenile    13  31.6  18.6  25.1  17.3  24.00  363.4   47.0   25.9   63.0    0    0   11    5    0    4  0.000  0.000  0.002  0.005  0.000  0.000
 End Juvenil-Floral Init    8  29.8  18.7  24.2  15.6  24.00  363.5    7.0   26.6   33.5    0    0    4    1    0    3  0.000  0.000  0.000  0.001  0.000  0.000
 Floral Init-End Lf Grow   39  29.5  18.8  24.1  13.7  24.00  363.6  165.0  122.4  129.2    0    0   15    2    0   14  0.000  0.003  0.001  0.002  0.000  0.000
 End Lf Grth-Beg Grn Fil   11  31.4  17.8  24.6  19.1  24.00  363.7   17.0   35.2   49.8    0    0   10    2    0    2  0.315  0.422  0.000  0.000  0.000  0.000
 Grain Filling Phase       43  32.9  18.2  25.6  18.1  24.00  363.8   55.2   68.4  197.8    0    0   42   27   11    6  0.669  0.725  0.000  0.000  0.000  0.000


 Planting to Harvest      123  31.2  18.5  24.8  16.5  24.00  363.6  332.2  304.1  514.2    0    0   86   40   13   32  0.284  0.316  0.000  0.001  0.000  0.000
----------------------------------------------------------------------------------------------------------------------------------------------------------------


*Resource Productivity
 Growing season length: 123 days 

 Precipitation during growing season       332.2 mm[rain]
   Dry Matter Productivity                  3.53 kg[DM]/m3[rain]          =   35.3 kg[DM]/ha per mm[rain]
   Yield Productivity                       1.38 kg[grain yield]/m3[rain] =   13.8 kg[yield]/ha per mm[rain]

 Evapotranspiration during growing season  304.1 mm[ET]
   Dry Matter Productivity                  3.85 kg[DM]/m3[ET]            =   38.5 kg[DM]/ha per mm[ET]
   Yield Productivity                       1.51 kg[grain yield]/m3[ET]   =   15.1 kg[yield]/ha per mm[ET]

 Transpiration during growing season       179.0 mm[EP]
   Dry Matter Productivity                  6.54 kg[DM]/m3[EP]            =   65.4 kg[DM]/ha per mm[EP]
   Yield Productivity                       2.56 kg[grain yield]/m3[EP]   =   25.6 kg[yield]/ha per mm[EP]

 N applied during growing season            161. kg[N applied]/ha
   Dry Matter Productivity                  72.8 kg[DM]/kg[N applied]
   Yield Productivity                       28.5 kg[yield]/kg[N applied]

 N uptake during growing season              155 kg[N uptake]/ha
   Dry Matter Productivity                  75.6 kg[DM]/kg[N uptake]
   Yield Productivity                       29.6 kg[yield]/kg[N uptake]

--------------------------------------------------------------------------------------------------------------

                     Maize YIELD :     4586 kg/ha    [Dry weight] 

**************************************************************************************************************

*DSSAT Cropping System Model Ver. 4.6.1.000 -release      OCT 24, 2017; 10:41:46
                                                                                
*RUN   6        : P04/27                    MZCER046 ANBU1997    6              
 MODEL          : MZCER046 - Maize                                              
 EXPERIMENT     : ANBU1997 MZ  Analisis a침os de bajo rendimiento Buga          
 DATA PATH      : C:\DSSAT46\maize\                                             
 TREATMENT  6   : P04/27                    MZCER046                            
                                                                                
                                                                                
 CROP           : Maize            CULTIVAR : FNC3056          ECOTYPE :IB0001  
 STARTING DATE  : MAR 28 1997                                                   
 PLANTING DATE  : APR 27 1997        PLANTS/m2 :  6.2     ROW SPACING :  80.cm  
 WEATHER        : CUNI   1997                                                   
 SOIL           : CCBUGA2017     TEXTURE : CL    -   Suelo Buga MADR Fase I     
 SOIL INITIAL C : DEPTH: 90cm EXTR. H2O: 83.9mm  NO3:  0.0kg/ha  NH4:  0.0kg/ha 
 WATER BALANCE  : RAINFED                                                       
 IRRIGATION     : NOT IRRIGATED                                                 
 NITROGEN BAL.  : SOIL-N & N-UPTAKE SIMULATION; NO N-FIXATION                   
 N-FERTILIZER   :      161 kg/ha IN     5 APPLICATIONS                          
 RESIDUE/MANURE : INITIAL :     0 kg/ha ;       0 kg/ha IN     0 APPLICATIONS   
 ENVIRONM. OPT. : DAYL=    0.00  SRAD=    0.00  TMAX=    0.00  TMIN=    0.00    
                  RAIN=    0.00  CO2 =    0.00  DEW =    0.00  WIND=    0.00    
 SIMULATION OPT : WATER   :Y  NITROGEN:Y  N-FIX:N  PHOSPH :N  PESTS  :N         
                  PHOTO   :C  ET      :R  INFIL:S  HYDROL :R  SOM    :G         
                  CO2 363ppm  NSWIT   :1  EVAP :S  SOIL   :2  STEMP  :D         
 MANAGEMENT OPT : PLANTING:R  IRRIG   :N  FERT :D  RESIDUE:R  HARVEST:M         
                  WEATHER :M  TILLAGE :N                                        
                                                                                
*SUMMARY OF SOIL AND GENETIC INPUT PARAMETERS                                   
                                                                                
   SOIL LOWER UPPER   SAT  EXTR  INIT   ROOT   BULK     pH    NO3    NH4    ORG 
  DEPTH LIMIT LIMIT    SW    SW    SW   DIST   DENS                          C  
   cm   cm3/cm3    cm3/cm3    cm3/cm3         g/cm3         ugN/g  ugN/g     %  
------------------------------------------------------------------------------- 
  0-  5 0.215 0.331 0.341 0.116 0.331   1.00   1.68   6.70   0.00   0.00   0.75 
  5- 15 0.215 0.331 0.341 0.116 0.331   1.00   1.68   6.70   0.00   0.00   0.75 
 15- 25 0.215 0.331 0.341 0.116 0.331   1.00   1.68   6.70   0.00   0.00   0.75 
 25- 35 0.181 0.291 0.364 0.110 0.291   0.50   1.61   7.20   0.00   0.00   0.53 
 35- 45 0.181 0.291 0.364 0.110 0.291   0.50   1.61   7.20   0.00   0.00   0.53 
 45- 67 0.096 0.169 0.404 0.073 0.169   0.27   1.51   7.00   0.00   0.00   0.05 
 67- 90 0.096 0.169 0.404 0.073 0.169   0.27   1.51   7.00   0.00   0.00   0.05 
                                                                                
TOT- 90  13.3  21.7  34.0   8.4  21.7  <--cm   -  kg/ha-->    0.0    0.0  51964 
SOIL ALBEDO    : 0.09      EVAPORATION LIMIT : 6.00         MIN. FACTOR  : 1.00 
RUNOFF CURVE # :76.00      DRAINAGE RATE     : 0.60         FERT. FACTOR : 1.00 
                                                                                
 Maize      CULTIVAR :CI0003-FNC3056            ECOTYPE :IB0001                 
 P1     : 233.00  P2     : 0.5000  P5     : 976.00                              
 G2     : 956.00  G3     :  7.500  PHINT  : 45.600                              


*SIMULATED CROP AND SOIL STATUS AT MAIN DEVELOPMENT STAGES

 RUN NO.     6     P04/27                  

        CROP GROWTH     BIOMASS         LEAF   CROP N     STRESS      STRESS                                           
   DATE  AGE STAGE        kg/ha    LAI   NUM  kg/ha  %   H2O  Nitr Phos1 Phos2  RSTG                                   
 ------  --- ----------   -----  -----  ----  ---  ---  ----  ----  ----  ----  ----                                   
 28 MAR    0 Start Sim        0   0.00   0.0    0  0.0  0.00  0.00  0.00  0.00     7
 27 APR    0 Sowing           0   0.00   0.0    0  0.0  0.00  0.00  0.00  0.00     8
 28 APR    1 Germinate        0   0.00   0.0    0  0.0  0.00  0.00  0.00  0.00     9
  3 MAY    6 Emergence       25   0.00   2.1    1  4.4  0.00  0.01  0.00  0.00     1
 16 MAY   19 End Juveni      93   0.20   7.6    3  3.3  0.00  0.00  0.00  0.00     2
 24 MAY   27 Floral Ini     422   0.72  10.8   15  3.6  0.00  0.00  0.00  0.00     3
  3 JUL   67 75% Silkin    6939   3.79  22.7  140  2.0  0.05  0.00  0.00  0.00     4
 13 JUL   77 Beg Gr Fil    7360   2.63  22.7  142  1.9  0.81  0.00  0.00  0.00     5
 25 AUG  120 End Gr Fil    9583   0.60  22.7  142  1.5  0.74  0.00  0.00  0.00     6
 28 AUG  123 Maturity      9583   0.60  22.7  142  1.5  0.91  0.00  0.00  0.00    10
 28 AUG  123 Harvest       9583   0.60  22.7  142  1.5  0.00  0.00  0.00  0.00    10


*MAIN GROWTH AND DEVELOPMENT VARIABLES

@     VARIABLE                                         SIMULATED     MEASURED
      --------                                         ---------     --------
      Anthesis day (dap)                                      67          -99
      Physiological maturity day (dap)                       123          -99
      Yield at harvest maturity (kg [dm]/ha)                2747          -99
      Number at maturity (no/m2)                            1381          -99
      Unit wt at maturity (g [dm]/unit)                   0.1989          -99
      Number at maturity (no/unit)                         222.8          -99
      Tops weight at maturity (kg [dm]/ha)                  9583          -99
      By-product produced (stalk) at maturity (kg[dm]/ha    6899          -99
      Leaf area index, maximum                              3.86          -99
      Harvest index at maturity                            0.287          -99
      Grain N at maturity (kg/ha)                             51          -99
      Tops N at maturity (kg/ha)                             142          -99
      Stem N at maturity (kg/ha)                              91          -99
      Grain N at maturity (%)                                1.8          -99
      Tops weight at anthesis (kg [dm]/ha)                  6696          -99
      Tops N at anthesis (kg/ha)                             136          -99
      Leaf number per stem at maturity                     22.67          -99
      Emergence day (dap)                                      6          -99


*ENVIRONMENTAL AND STRESS FACTORS

 |-----Development Phase------|--------------------------------------Environment--------------------------------------|-----------------Stress-----------------|
                              |---------------Average--------------|-----Cumulative-----|--------Count of days--------|          (0=Min, 1=Max Stress)         |
                         Time  Temp  Temp  Temp Solar Photop                Evapo    Pot TMIN TMIN TMAX TMAX TMAX RAIN|----Water----|---Nitrogen--|-Phosphorus-|
                         Span   Max   Min  Mean   Rad  [day]    CO2   Rain  Trans     ET   <    <    >    >    >    >   Photo         Photo         Photo
                         days    邂    邂    邂 MJ/m2     hr    ppm     mm     mm     mm  0邂  2邂 30邂 32邂 34邂  0mm  synth Growth  synth Growth  synth Growth
----------------------------------------------------------------------------------------------------------------------------------------------------------------
 Emergence-End Juvenile    13  30.6  18.7  24.6  15.7  24.00  363.4   54.0   35.2   56.9    0    0    8    3    0    7  0.000  0.000  0.002  0.004  0.000  0.000
 End Juvenil-Floral Init    8  31.2  18.8  25.0  16.2  24.00  363.5   12.0   16.3   34.9    0    0    7    1    0    1  0.000  0.000  0.000  0.001  0.000  0.000
 Floral Init-End Lf Grow   40  29.5  18.7  24.1  14.3  24.00  363.6  170.0  131.1  137.7    0    0   16    2    0   15  0.013  0.036  0.001  0.002  0.000  0.000
 End Lf Grth-Beg Grn Fil   10  31.5  18.3  24.9  18.3  24.00  363.7    0.0   17.9   43.8    0    0    9    2    0    0  0.648  0.766  0.000  0.000  0.000  0.000
 Grain Filling Phase       43  33.2  18.0  25.6  18.4  24.00  363.8   55.2   64.8  203.2    0    0   43   32   14    6  0.693  0.741  0.000  0.000  0.000  0.000


 Planting to Harvest      123  31.4  18.4  24.9  16.5  24.00  363.7  292.1  281.1  519.1    0    0   90   45   14   30  0.321  0.356  0.000  0.001  0.000  0.000
----------------------------------------------------------------------------------------------------------------------------------------------------------------


*Resource Productivity
 Growing season length: 123 days 

 Precipitation during growing season       292.1 mm[rain]
   Dry Matter Productivity                  3.28 kg[DM]/m3[rain]          =   32.8 kg[DM]/ha per mm[rain]
   Yield Productivity                       0.94 kg[grain yield]/m3[rain] =    9.4 kg[yield]/ha per mm[rain]

 Evapotranspiration during growing season  281.1 mm[ET]
   Dry Matter Productivity                  3.41 kg[DM]/m3[ET]            =   34.1 kg[DM]/ha per mm[ET]
   Yield Productivity                       0.98 kg[grain yield]/m3[ET]   =    9.8 kg[yield]/ha per mm[ET]

 Transpiration during growing season       162.7 mm[EP]
   Dry Matter Productivity                  5.89 kg[DM]/m3[EP]            =   58.9 kg[DM]/ha per mm[EP]
   Yield Productivity                       1.69 kg[grain yield]/m3[EP]   =   16.9 kg[yield]/ha per mm[EP]

 N applied during growing season            161. kg[N applied]/ha
   Dry Matter Productivity                  59.5 kg[DM]/kg[N applied]
   Yield Productivity                       17.1 kg[yield]/kg[N applied]

 N uptake during growing season              155 kg[N uptake]/ha
   Dry Matter Productivity                  61.8 kg[DM]/kg[N uptake]
   Yield Productivity                       17.7 kg[yield]/kg[N uptake]

--------------------------------------------------------------------------------------------------------------

                     Maize YIELD :     2747 kg/ha    [Dry weight] 

**************************************************************************************************************

*DSSAT Cropping System Model Ver. 4.6.1.000 -release      OCT 24, 2017; 10:41:47
                                                                                
*RUN   7        : P05/02                    MZCER046 ANBU1997    7              
 MODEL          : MZCER046 - Maize                                              
 EXPERIMENT     : ANBU1997 MZ  Analisis a침os de bajo rendimiento Buga          
 DATA PATH      : C:\DSSAT46\maize\                                             
 TREATMENT  7   : P05/02                    MZCER046                            
                                                                                
                                                                                
 CROP           : Maize            CULTIVAR : FNC3056          ECOTYPE :IB0001  
 STARTING DATE  : APR  2 1997                                                   
 PLANTING DATE  : MAY  2 1997        PLANTS/m2 :  6.2     ROW SPACING :  80.cm  
 WEATHER        : CUNI   1997                                                   
 SOIL           : CCBUGA2017     TEXTURE : CL    -   Suelo Buga MADR Fase I     
 SOIL INITIAL C : DEPTH: 90cm EXTR. H2O: 83.9mm  NO3:  0.0kg/ha  NH4:  0.0kg/ha 
 WATER BALANCE  : RAINFED                                                       
 IRRIGATION     : NOT IRRIGATED                                                 
 NITROGEN BAL.  : SOIL-N & N-UPTAKE SIMULATION; NO N-FIXATION                   
 N-FERTILIZER   :      161 kg/ha IN     5 APPLICATIONS                          
 RESIDUE/MANURE : INITIAL :     0 kg/ha ;       0 kg/ha IN     0 APPLICATIONS   
 ENVIRONM. OPT. : DAYL=    0.00  SRAD=    0.00  TMAX=    0.00  TMIN=    0.00    
                  RAIN=    0.00  CO2 =    0.00  DEW =    0.00  WIND=    0.00    
 SIMULATION OPT : WATER   :Y  NITROGEN:Y  N-FIX:N  PHOSPH :N  PESTS  :N         
                  PHOTO   :C  ET      :R  INFIL:S  HYDROL :R  SOM    :G         
                  CO2 363ppm  NSWIT   :1  EVAP :S  SOIL   :2  STEMP  :D         
 MANAGEMENT OPT : PLANTING:R  IRRIG   :N  FERT :D  RESIDUE:R  HARVEST:M         
                  WEATHER :M  TILLAGE :N                                        
                                                                                
*SUMMARY OF SOIL AND GENETIC INPUT PARAMETERS                                   
                                                                                
   SOIL LOWER UPPER   SAT  EXTR  INIT   ROOT   BULK     pH    NO3    NH4    ORG 
  DEPTH LIMIT LIMIT    SW    SW    SW   DIST   DENS                          C  
   cm   cm3/cm3    cm3/cm3    cm3/cm3         g/cm3         ugN/g  ugN/g     %  
------------------------------------------------------------------------------- 
  0-  5 0.215 0.331 0.341 0.116 0.331   1.00   1.68   6.70   0.00   0.00   0.75 
  5- 15 0.215 0.331 0.341 0.116 0.331   1.00   1.68   6.70   0.00   0.00   0.75 
 15- 25 0.215 0.331 0.341 0.116 0.331   1.00   1.68   6.70   0.00   0.00   0.75 
 25- 35 0.181 0.291 0.364 0.110 0.291   0.50   1.61   7.20   0.00   0.00   0.53 
 35- 45 0.181 0.291 0.364 0.110 0.291   0.50   1.61   7.20   0.00   0.00   0.53 
 45- 67 0.096 0.169 0.404 0.073 0.169   0.27   1.51   7.00   0.00   0.00   0.05 
 67- 90 0.096 0.169 0.404 0.073 0.169   0.27   1.51   7.00   0.00   0.00   0.05 
                                                                                
TOT- 90  13.3  21.7  34.0   8.4  21.7  <--cm   -  kg/ha-->    0.0    0.0  51964 
SOIL ALBEDO    : 0.09      EVAPORATION LIMIT : 6.00         MIN. FACTOR  : 1.00 
RUNOFF CURVE # :76.00      DRAINAGE RATE     : 0.60         FERT. FACTOR : 1.00 
                                                                                
 Maize      CULTIVAR :CI0003-FNC3056            ECOTYPE :IB0001                 
 P1     : 233.00  P2     : 0.5000  P5     : 976.00                              
 G2     : 956.00  G3     :  7.500  PHINT  : 45.600                              


*SIMULATED CROP AND SOIL STATUS AT MAIN DEVELOPMENT STAGES

 RUN NO.     7     P05/02                  

        CROP GROWTH     BIOMASS         LEAF   CROP N     STRESS      STRESS                                           
   DATE  AGE STAGE        kg/ha    LAI   NUM  kg/ha  %   H2O  Nitr Phos1 Phos2  RSTG                                   
 ------  --- ----------   -----  -----  ----  ---  ---  ----  ----  ----  ----  ----                                   
  2 APR    0 Start Sim        0   0.00   0.0    0  0.0  0.00  0.00  0.00  0.00     7
  2 MAY    0 Sowing           0   0.00   0.0    0  0.0  0.00  0.00  0.00  0.00     8
  3 MAY    1 Germinate        0   0.00   0.0    0  0.0  0.00  0.00  0.00  0.00     9
  8 MAY    6 Emergence       25   0.00   2.1    1  4.4  0.00  0.01  0.00  0.00     1
 21 MAY   19 End Juveni     104   0.22   7.6    4  3.5  0.00  0.00  0.00  0.00     2
 29 MAY   27 Floral Ini     352   0.62  10.6   13  3.6  0.00  0.00  0.00  0.00     3
  7 JUL   66 75% Silkin    5498   2.68  22.2  118  2.2  0.19  0.00  0.00  0.00     4
 17 JUL   76 Beg Gr Fil    5768   1.85  22.2  118  2.1  0.81  0.00  0.00  0.00     5
 29 AUG  119 End Gr Fil    7444   0.46  22.2  118  1.6  0.72  0.00  0.00  0.00     6
  1 SEP  122 Maturity      7444   0.46  22.2  118  1.6  0.93  0.00  0.00  0.00    10
  1 SEP  122 Harvest       7444   0.46  22.2  118  1.6  0.00  0.00  0.00  0.00    10


*MAIN GROWTH AND DEVELOPMENT VARIABLES

@     VARIABLE                                         SIMULATED     MEASURED
      --------                                         ---------     --------
      Anthesis day (dap)                                      66          -99
      Physiological maturity day (dap)                       122          -99
      Yield at harvest maturity (kg [dm]/ha)                2078          -99
      Number at maturity (no/m2)                            1012          -99
      Unit wt at maturity (g [dm]/unit)                   0.2054          -99
      Number at maturity (no/unit)                         163.2          -99
      Tops weight at maturity (kg [dm]/ha)                  7444          -99
      By-product produced (stalk) at maturity (kg[dm]/ha    5422          -99
      Leaf area index, maximum                              3.07          -99
      Harvest index at maturity                            0.279          -99
      Grain N at maturity (kg/ha)                             38          -99
      Tops N at maturity (kg/ha)                             118          -99
      Stem N at maturity (kg/ha)                              80          -99
      Grain N at maturity (%)                                1.8          -99
      Tops weight at anthesis (kg [dm]/ha)                  5422          -99
      Tops N at anthesis (kg/ha)                             118          -99
      Leaf number per stem at maturity                     22.21          -99
      Emergence day (dap)                                      6          -99


*ENVIRONMENTAL AND STRESS FACTORS

 |-----Development Phase------|--------------------------------------Environment--------------------------------------|-----------------Stress-----------------|
                              |---------------Average--------------|-----Cumulative-----|--------Count of days--------|          (0=Min, 1=Max Stress)         |
                         Time  Temp  Temp  Temp Solar Photop                Evapo    Pot TMIN TMIN TMAX TMAX TMAX RAIN|----Water----|---Nitrogen--|-Phosphorus-|
                         Span   Max   Min  Mean   Rad  [day]    CO2   Rain  Trans     ET   <    <    >    >    >    >   Photo         Photo         Photo
                         days    邂    邂    邂 MJ/m2     hr    ppm     mm     mm     mm  0邂  2邂 30邂 32邂 34邂  0mm  synth Growth  synth Growth  synth Growth
----------------------------------------------------------------------------------------------------------------------------------------------------------------
 Emergence-End Juvenile    13  30.5  19.0  24.7  15.3  24.00  363.5   40.0   36.7   55.4    0    0    9    2    0    5  0.000  0.000  0.002  0.005  0.000  0.000
 End Juvenil-Floral Init    8  29.6  19.2  24.4  13.5  24.00  363.5   30.0   17.3   29.0    0    0    3    1    0    3  0.000  0.000  0.000  0.001  0.000  0.000
 Floral Init-End Lf Grow   39  29.8  18.4  24.1  15.3  24.00  363.6  152.0  119.4  145.2    0    0   19    3    0   13  0.131  0.176  0.000  0.000  0.000  0.000
 End Lf Grth-Beg Grn Fil   10  31.9  18.4  25.1  17.6  24.00  363.7    3.0   14.3   43.0    0    0    9    2    1    1  0.705  0.803  0.000  0.000  0.000  0.000
 Grain Filling Phase       43  33.3  18.0  25.7  18.3  24.00  363.9   53.1   63.8  205.0    0    0   43   34   14    6  0.656  0.716  0.000  0.000  0.000  0.000


 Planting to Harvest      122  31.5  18.3  24.9  16.6  23.95  363.7  292.1  258.5  520.0    0    0   91   47   16   30  0.353  0.397  0.000  0.001  0.000  0.000
----------------------------------------------------------------------------------------------------------------------------------------------------------------


*Resource Productivity
 Growing season length: 122 days 

 Precipitation during growing season       292.1 mm[rain]
   Dry Matter Productivity                  2.55 kg[DM]/m3[rain]          =   25.5 kg[DM]/ha per mm[rain]
   Yield Productivity                       0.71 kg[grain yield]/m3[rain] =    7.1 kg[yield]/ha per mm[rain]

 Evapotranspiration during growing season  258.5 mm[ET]
   Dry Matter Productivity                  2.88 kg[DM]/m3[ET]            =   28.8 kg[DM]/ha per mm[ET]
   Yield Productivity                       0.80 kg[grain yield]/m3[ET]   =    8.0 kg[yield]/ha per mm[ET]

 Transpiration during growing season       139.7 mm[EP]
   Dry Matter Productivity                  5.33 kg[DM]/m3[EP]            =   53.3 kg[DM]/ha per mm[EP]
   Yield Productivity                       1.49 kg[grain yield]/m3[EP]   =   14.9 kg[yield]/ha per mm[EP]

 N applied during growing season            161. kg[N applied]/ha
   Dry Matter Productivity                  46.2 kg[DM]/kg[N applied]
   Yield Productivity                       12.9 kg[yield]/kg[N applied]

 N uptake during growing season              130 kg[N uptake]/ha
   Dry Matter Productivity                  57.3 kg[DM]/kg[N uptake]
   Yield Productivity                       16.0 kg[yield]/kg[N uptake]

--------------------------------------------------------------------------------------------------------------

                     Maize YIELD :     2078 kg/ha    [Dry weight] 

**************************************************************************************************************

*DSSAT Cropping System Model Ver. 4.6.1.000 -release      OCT 24, 2017; 10:41:47
                                                                                
*RUN   8        : P05/07                    MZCER046 ANBU1997    8              
 MODEL          : MZCER046 - Maize                                              
 EXPERIMENT     : ANBU1997 MZ  Analisis a침os de bajo rendimiento Buga          
 DATA PATH      : C:\DSSAT46\maize\                                             
 TREATMENT  8   : P05/07                    MZCER046                            
                                                                                
                                                                                
 CROP           : Maize            CULTIVAR : FNC3056          ECOTYPE :IB0001  
 STARTING DATE  : APR  7 1997                                                   
 PLANTING DATE  : MAY  7 1997        PLANTS/m2 :  6.2     ROW SPACING :  80.cm  
 WEATHER        : CUNI   1997                                                   
 SOIL           : CCBUGA2017     TEXTURE : CL    -   Suelo Buga MADR Fase I     
 SOIL INITIAL C : DEPTH: 90cm EXTR. H2O: 83.9mm  NO3:  0.0kg/ha  NH4:  0.0kg/ha 
 WATER BALANCE  : RAINFED                                                       
 IRRIGATION     : NOT IRRIGATED                                                 
 NITROGEN BAL.  : SOIL-N & N-UPTAKE SIMULATION; NO N-FIXATION                   
 N-FERTILIZER   :      161 kg/ha IN     5 APPLICATIONS                          
 RESIDUE/MANURE : INITIAL :     0 kg/ha ;       0 kg/ha IN     0 APPLICATIONS   
 ENVIRONM. OPT. : DAYL=    0.00  SRAD=    0.00  TMAX=    0.00  TMIN=    0.00    
                  RAIN=    0.00  CO2 =    0.00  DEW =    0.00  WIND=    0.00    
 SIMULATION OPT : WATER   :Y  NITROGEN:Y  N-FIX:N  PHOSPH :N  PESTS  :N         
                  PHOTO   :C  ET      :R  INFIL:S  HYDROL :R  SOM    :G         
                  CO2 363ppm  NSWIT   :1  EVAP :S  SOIL   :2  STEMP  :D         
 MANAGEMENT OPT : PLANTING:R  IRRIG   :N  FERT :D  RESIDUE:R  HARVEST:M         
                  WEATHER :M  TILLAGE :N                                        
                                                                                
*SUMMARY OF SOIL AND GENETIC INPUT PARAMETERS                                   
                                                                                
   SOIL LOWER UPPER   SAT  EXTR  INIT   ROOT   BULK     pH    NO3    NH4    ORG 
  DEPTH LIMIT LIMIT    SW    SW    SW   DIST   DENS                          C  
   cm   cm3/cm3    cm3/cm3    cm3/cm3         g/cm3         ugN/g  ugN/g     %  
------------------------------------------------------------------------------- 
  0-  5 0.215 0.331 0.341 0.116 0.331   1.00   1.68   6.70   0.00   0.00   0.75 
  5- 15 0.215 0.331 0.341 0.116 0.331   1.00   1.68   6.70   0.00   0.00   0.75 
 15- 25 0.215 0.331 0.341 0.116 0.331   1.00   1.68   6.70   0.00   0.00   0.75 
 25- 35 0.181 0.291 0.364 0.110 0.291   0.50   1.61   7.20   0.00   0.00   0.53 
 35- 45 0.181 0.291 0.364 0.110 0.291   0.50   1.61   7.20   0.00   0.00   0.53 
 45- 67 0.096 0.169 0.404 0.073 0.169   0.27   1.51   7.00   0.00   0.00   0.05 
 67- 90 0.096 0.169 0.404 0.073 0.169   0.27   1.51   7.00   0.00   0.00   0.05 
                                                                                
TOT- 90  13.3  21.7  34.0   8.4  21.7  <--cm   -  kg/ha-->    0.0    0.0  51964 
SOIL ALBEDO    : 0.09      EVAPORATION LIMIT : 6.00         MIN. FACTOR  : 1.00 
RUNOFF CURVE # :76.00      DRAINAGE RATE     : 0.60         FERT. FACTOR : 1.00 
                                                                                
 Maize      CULTIVAR :CI0003-FNC3056            ECOTYPE :IB0001                 
 P1     : 233.00  P2     : 0.5000  P5     : 976.00                              
 G2     : 956.00  G3     :  7.500  PHINT  : 45.600                              


*SIMULATED CROP AND SOIL STATUS AT MAIN DEVELOPMENT STAGES

 RUN NO.     8     P05/07                  

        CROP GROWTH     BIOMASS         LEAF   CROP N     STRESS      STRESS                                           
   DATE  AGE STAGE        kg/ha    LAI   NUM  kg/ha  %   H2O  Nitr Phos1 Phos2  RSTG                                   
 ------  --- ----------   -----  -----  ----  ---  ---  ----  ----  ----  ----  ----                                   
  7 APR    0 Start Sim        0   0.00   0.0    0  0.0  0.00  0.00  0.00  0.00     7
  7 MAY    0 Sowing           0   0.00   0.0    0  0.0  0.00  0.00  0.00  0.00     8
  8 MAY    1 Germinate        0   0.00   0.0    0  0.0  0.00  0.00  0.00  0.00     9
 13 MAY    6 Emergence       25   0.00   2.1    1  4.4  0.00  0.01  0.00  0.00     1
 26 MAY   19 End Juveni      87   0.19   7.6    3  3.7  0.00  0.01  0.00  0.00     2
  3 JUN   27 Floral Ini     313   0.57  10.6   11  3.6  0.00  0.00  0.00  0.00     3
 12 JUL   66 75% Silkin    4940   2.37  21.8  103  2.1  0.27  0.00  0.00  0.00     4
 21 JUL   75 Beg Gr Fil    5102   1.64  21.8  103  2.0  0.86  0.00  0.00  0.00     5
  3 SEP  119 End Gr Fil    6564   0.38  21.8  103  1.6  0.71  0.00  0.00  0.00     6
  5 SEP  121 Maturity      6564   0.38  21.8  103  1.6  0.00  0.00  0.00  0.00    10
[...]
 NITROGEN BAL.  : SOIL-N & N-UPTAKE SIMULATION; NO N-FIXATION                   
 N-FERTILIZER   :      161 kg/ha IN     5 APPLICATIONS                          
 RESIDUE/MANURE : INITIAL :     0 kg/ha ;       0 kg/ha IN     0 APPLICATIONS   
 ENVIRONM. OPT. : DAYL=    0.00  SRAD=    0.00  TMAX=    0.00  TMIN=    0.00    
                  RAIN=    0.00  CO2 =    0.00  DEW =    0.00  WIND=    0.00    
 SIMULATION OPT : WATER   :Y  NITROGEN:Y  N-FIX:N  PHOSPH :N  PESTS  :N         
                  PHOTO   :C  ET      :R  INFIL:S  HYDROL :R  SOM    :G         
                  CO2 364ppm  NSWIT   :1  EVAP :S  SOIL   :2  STEMP  :D         
 MANAGEMENT OPT : PLANTING:R  IRRIG   :N  FERT :D  RESIDUE:R  HARVEST:M         
                  WEATHER :M  TILLAGE :N                                        
                                                                                
*SUMMARY OF SOIL AND GENETIC INPUT PARAMETERS                                   
                                                                                
   SOIL LOWER UPPER   SAT  EXTR  INIT   ROOT   BULK     pH    NO3    NH4    ORG 
  DEPTH LIMIT LIMIT    SW    SW    SW   DIST   DENS                          C  
   cm   cm3/cm3    cm3/cm3    cm3/cm3         g/cm3         ugN/g  ugN/g     %  
------------------------------------------------------------------------------- 
  0-  5 0.215 0.331 0.341 0.116 0.331   1.00   1.68   6.70   0.00   0.00   0.75 
  5- 15 0.215 0.331 0.341 0.116 0.331   1.00   1.68   6.70   0.00   0.00   0.75 
 15- 25 0.215 0.331 0.341 0.116 0.331   1.00   1.68   6.70   0.00   0.00   0.75 
 25- 35 0.181 0.291 0.364 0.110 0.291   0.50   1.61   7.20   0.00   0.00   0.53 
 35- 45 0.181 0.291 0.364 0.110 0.291   0.50   1.61   7.20   0.00   0.00   0.53 
 45- 67 0.096 0.169 0.404 0.073 0.169   0.27   1.51   7.00   0.00   0.00   0.05 
 67- 90 0.096 0.169 0.404 0.073 0.169   0.27   1.51   7.00   0.00   0.00   0.05 
                                                                                
TOT- 90  13.3  21.7  34.0   8.4  21.7  <--cm   -  kg/ha-->    0.0    0.0  51964 
SOIL ALBEDO    : 0.09      EVAPORATION LIMIT : 6.00         MIN. FACTOR  : 1.00 
RUNOFF CURVE # :76.00      DRAINAGE RATE     : 0.60         FERT. FACTOR : 1.00 
                                                                                
 Maize      CULTIVAR :CI0003-FNC3056            ECOTYPE :IB0001                 
 P1     : 233.00  P2     : 0.5000  P5     : 976.00                              
 G2     : 956.00  G3     :  7.500  PHINT  : 45.600                              


*SIMULATED CROP AND SOIL STATUS AT MAIN DEVELOPMENT STAGES

 RUN NO.    35     P12/14                  

        CROP GROWTH     BIOMASS         LEAF   CROP N     STRESS      STRESS                                           
   DATE  AGE STAGE        kg/ha    LAI   NUM  kg/ha  %   H2O  Nitr Phos1 Phos2  RSTG                                   
 ------  --- ----------   -----  -----  ----  ---  ---  ----  ----  ----  ----  ----                                   
 14 NOV    0 Start Sim        0   0.00   0.0    0  0.0  0.00  0.00  0.00  0.00     7
 14 DEC    0 Sowing           0   0.00   0.0    0  0.0  0.00  0.00  0.00  0.00     8
 15 DEC    1 Germinate        0   0.00   0.0    0  0.0  0.00  0.00  0.00  0.00     9
 20 DEC    6 Emergence       25   0.00   2.1    1  4.4  0.00  0.01  0.00  0.00     1
  1 JAN   18 End Juveni     111   0.24   7.5    4  3.4  0.07  0.00  0.00  0.00     2
  5 JAN   22 Floral Ini     260   0.49   9.3    8  3.2  0.07  0.00  0.00  0.00     3
  6 FEB   54 75% Silkin    2104   0.91  19.7   28  1.3  0.56  0.28  0.00  0.00     4
 15 FEB   63 Beg Gr Fil    2591   0.84  19.7   47  1.8  0.23  0.05  0.00  0.00     5
 30 MAR  106 End Gr Fil    3766   0.21  19.7   48  1.3  0.69  0.00  0.00  0.00     6
  2 APR  109 Maturity      3766   0.21  19.7   48  1.3  0.00  0.00  0.00  0.00    10
  2 APR  109 Harvest       3766   0.21  19.7   48  1.3  0.00  0.00  0.00  0.00    10


*MAIN GROWTH AND DEVELOPMENT VARIABLES

@     VARIABLE                                         SIMULATED     MEASURED
      --------                                         ---------     --------
      Anthesis day (dap)                                      54          -99
      Physiological maturity day (dap)                       109          -99
      Yield at harvest maturity (kg [dm]/ha)                1568          -99
      Number at maturity (no/m2)                             994          -99
      Unit wt at maturity (g [dm]/unit)                   0.1579          -99
      Number at maturity (no/unit)                         160.3          -99
      Tops weight at maturity (kg [dm]/ha)                  3766          -99
      By-product produced (stalk) at maturity (kg[dm]/ha    2228          -99
      Leaf area index, maximum                              1.28          -99
      Harvest index at maturity                            0.416          -99
      Grain N at maturity (kg/ha)                             29          -99
      Tops N at maturity (kg/ha)                              48          -99
      Stem N at maturity (kg/ha)                              19          -99
      Grain N at maturity (%)                                1.8          -99
      Tops weight at anthesis (kg [dm]/ha)                  2093          -99
      Tops N at anthesis (kg/ha)                              28          -99
      Leaf number per stem at maturity                     19.69          -99
      Emergence day (dap)                                      6          -99


*ENVIRONMENTAL AND STRESS FACTORS

 |-----Development Phase------|--------------------------------------Environment--------------------------------------|-----------------Stress-----------------|
                              |---------------Average--------------|-----Cumulative-----|--------Count of days--------|          (0=Min, 1=Max Stress)         |
                         Time  Temp  Temp  Temp Solar Photop                Evapo    Pot TMIN TMIN TMAX TMAX TMAX RAIN|----Water----|---Nitrogen--|-Phosphorus-|
                         Span   Max   Min  Mean   Rad  [day]    CO2   Rain  Trans     ET   <    <    >    >    >    >   Photo         Photo         Photo
                         days    邂    邂    邂 MJ/m2     hr    ppm     mm     mm     mm  0邂  2邂 30邂 32邂 34邂  0mm  synth Growth  synth Growth  synth Growth
----------------------------------------------------------------------------------------------------------------------------------------------------------------
 Emergence-End Juvenile    12  32.7  18.0  25.4  17.3   0.00  364.9    9.0    9.1   57.7    0    0   12    8    0    1  0.000  0.051  0.002  0.005  0.000  0.000
 End Juvenil-Floral Init    4  34.2  18.6  26.4  20.1   0.00  364.9    0.0    7.1   22.5    0    0    4    4    2    0  0.000  0.133  0.001  0.002  0.000  0.000
 Floral Init-End Lf Grow   32  33.4  19.0  26.2  18.7   0.00  365.1   11.0   57.8  157.4    0    0   30   27    8    2  0.438  0.535  0.106  0.261  0.000  0.000
 End Lf Grth-Beg Grn Fil    9  31.4  19.1  25.2  13.0   0.00  365.2   45.0   19.1   30.5    0    0    5    4    1    6  0.261  0.322  0.039  0.097  0.000  0.000
 Grain Filling Phase       43  32.5  19.1  25.8  17.8   6.27  365.5   59.3   57.0  206.7    0    0   36   29    5   10  0.627  0.689  0.000  0.000  0.000  0.000


 Planting to Harvest      109  32.6  18.9  25.8  17.5   2.89  365.3  136.1  160.2  511.8    0    0   94   74   16   22  0.397  0.466  0.034  0.085  0.000  0.000
----------------------------------------------------------------------------------------------------------------------------------------------------------------


*Resource Productivity
 Growing season length: 109 days 

 Precipitation during growing season       136.1 mm[rain]
   Dry Matter Productivity                  2.77 kg[DM]/m3[rain]          =   27.7 kg[DM]/ha per mm[rain]
   Yield Productivity                       1.15 kg[grain yield]/m3[rain] =   11.5 kg[yield]/ha per mm[rain]

 Evapotranspiration during growing season  160.2 mm[ET]
   Dry Matter Productivity                  2.35 kg[DM]/m3[ET]            =   23.5 kg[DM]/ha per mm[ET]
   Yield Productivity                       0.98 kg[grain yield]/m3[ET]   =    9.8 kg[yield]/ha per mm[ET]

 Transpiration during growing season        80.4 mm[EP]
   Dry Matter Productivity                  4.68 kg[DM]/m3[EP]            =   46.8 kg[DM]/ha per mm[EP]
   Yield Productivity                       1.95 kg[grain yield]/m3[EP]   =   19.5 kg[yield]/ha per mm[EP]

 N applied during growing season            161. kg[N applied]/ha
   Dry Matter Productivity                  23.4 kg[DM]/kg[N applied]
   Yield Productivity                        9.7 kg[yield]/kg[N applied]

 N uptake during growing season               53 kg[N uptake]/ha
   Dry Matter Productivity                  71.1 kg[DM]/kg[N uptake]
   Yield Productivity                       29.6 kg[yield]/kg[N uptake]

--------------------------------------------------------------------------------------------------------------

                     Maize YIELD :     1568 kg/ha    [Dry weight] 

**************************************************************************************************************

*DSSAT Cropping System Model Ver. 4.6.1.000 -release      OCT 24, 2017; 10:42:02
                                                                                
*RUN  36        : P12/19                    MZCER046 ANBU1997   36              
 MODEL          : MZCER046 - Maize                                              
 EXPERIMENT     : ANBU1997 MZ  Analisis a침os de bajo rendimiento Buga          
 DATA PATH      : C:\DSSAT46\maize\                                             
 TREATMENT 36   : P12/19                    MZCER046                            
                                                                                
                                                                                
 CROP           : Maize            CULTIVAR : FNC3056          ECOTYPE :IB0001  
 STARTING DATE  : NOV 19 1997                                                   
 PLANTING DATE  : DEC 19 1997        PLANTS/m2 :  6.2     ROW SPACING :  80.cm  
 WEATHER        : CUNI   1997                                                   
 SOIL           : CCBUGA2017     TEXTURE : CL    -   Suelo Buga MADR Fase I     
 SOIL INITIAL C : DEPTH: 90cm EXTR. H2O: 83.9mm  NO3:  0.0kg/ha  NH4:  0.0kg/ha 
 WATER BALANCE  : RAINFED                                                       
 IRRIGATION     : NOT IRRIGATED                                                 
 NITROGEN BAL.  : SOIL-N & N-UPTAKE SIMULATION; NO N-FIXATION                   
 N-FERTILIZER   :      161 kg/ha IN     5 APPLICATIONS                          
 RESIDUE/MANURE : INITIAL :     0 kg/ha ;       0 kg/ha IN     0 APPLICATIONS   
 ENVIRONM. OPT. : DAYL=    0.00  SRAD=    0.00  TMAX=    0.00  TMIN=    0.00    
                  RAIN=    0.00  CO2 =    0.00  DEW =    0.00  WIND=    0.00    
 SIMULATION OPT : WATER   :Y  NITROGEN:Y  N-FIX:N  PHOSPH :N  PESTS  :N         
                  PHOTO   :C  ET      :R  INFIL:S  HYDROL :R  SOM    :G         
                  CO2 365ppm  NSWIT   :1  EVAP :S  SOIL   :2  STEMP  :D         
 MANAGEMENT OPT : PLANTING:R  IRRIG   :N  FERT :D  RESIDUE:R  HARVEST:M         
                  WEATHER :M  TILLAGE :N                                        
                                                                                
*SUMMARY OF SOIL AND GENETIC INPUT PARAMETERS                                   
                                                                                
   SOIL LOWER UPPER   SAT  EXTR  INIT   ROOT   BULK     pH    NO3    NH4    ORG 
  DEPTH LIMIT LIMIT    SW    SW    SW   DIST   DENS                          C  
   cm   cm3/cm3    cm3/cm3    cm3/cm3         g/cm3         ugN/g  ugN/g     %  
------------------------------------------------------------------------------- 
  0-  5 0.215 0.331 0.341 0.116 0.331   1.00   1.68   6.70   0.00   0.00   0.75 
  5- 15 0.215 0.331 0.341 0.116 0.331   1.00   1.68   6.70   0.00   0.00   0.75 
 15- 25 0.215 0.331 0.341 0.116 0.331   1.00   1.68   6.70   0.00   0.00   0.75 
 25- 35 0.181 0.291 0.364 0.110 0.291   0.50   1.61   7.20   0.00   0.00   0.53 
 35- 45 0.181 0.291 0.364 0.110 0.291   0.50   1.61   7.20   0.00   0.00   0.53 
 45- 67 0.096 0.169 0.404 0.073 0.169   0.27   1.51   7.00   0.00   0.00   0.05 
 67- 90 0.096 0.169 0.404 0.073 0.169   0.27   1.51   7.00   0.00   0.00   0.05 
                                                                                
TOT- 90  13.3  21.7  34.0   8.4  21.7  <--cm   -  kg/ha-->    0.0    0.0  51964 
SOIL ALBEDO    : 0.09      EVAPORATION LIMIT : 6.00         MIN. FACTOR  : 1.00 
RUNOFF CURVE # :76.00      DRAINAGE RATE     : 0.60         FERT. FACTOR : 1.00 
                                                                                
 Maize      CULTIVAR :CI0003-FNC3056            ECOTYPE :IB0001                 
 P1     : 233.00  P2     : 0.5000  P5     : 976.00                              
 G2     : 956.00  G3     :  7.500  PHINT  : 45.600                              


*SIMULATED CROP AND SOIL STATUS AT MAIN DEVELOPMENT STAGES

 RUN NO.    36     P12/19                  

        CROP GROWTH     BIOMASS         LEAF   CROP N     STRESS      STRESS                                           
   DATE  AGE STAGE        kg/ha    LAI   NUM  kg/ha  %   H2O  Nitr Phos1 Phos2  RSTG                                   
 ------  --- ----------   -----  -----  ----  ---  ---  ----  ----  ----  ----  ----                                   
 19 NOV    0 Start Sim        0   0.00   0.0    0  0.0  0.00  0.00  0.00  0.00     7
 19 DEC    0 Sowing           0   0.00   0.0    0  0.0  0.00  0.00  0.00  0.00     8
 20 DEC    1 Germinate        0   0.00   0.0    0  0.0  0.00  0.00  0.00  0.00     9
 25 DEC    6 Emergence       25   0.00   2.1    1  4.4  0.00  0.01  0.00  0.00     1
  6 JAN   18 End Juveni     114   0.24   7.7    4  3.3  0.09  0.00  0.00  0.00     2
 10 JAN   22 Floral Ini     240   0.46   9.3    8  3.4  0.08  0.00  0.00  0.00     3
 10 FEB   53 75% Silkin    2338   1.11  19.4   50  2.2  0.52  0.34  0.00  0.00     4
 20 FEB   63 Beg Gr Fil    3498   1.02  19.4   51  1.5  0.24  0.00  0.00  0.00     5
  4 APR  106 End Gr Fil    4611   0.25  19.4   52  1.1  0.68  0.00  0.00  0.00     6
  7 APR  109 Maturity      4611   0.25  19.4   52  1.1  0.00  0.00  0.00  0.00    10
  7 APR  109 Harvest       4611   0.25  19.4   52  1.1  0.00  0.00  0.00  0.00    10


*MAIN GROWTH AND DEVELOPMENT VARIABLES

@     VARIABLE                                         SIMULATED     MEASURED
      --------                                         ---------     --------
      Anthesis day (dap)                                      53          -99
      Physiological maturity day (dap)                       109          -99
      Yield at harvest maturity (kg [dm]/ha)                1751          -99
      Number at maturity (no/m2)                            1649          -99
      Unit wt at maturity (g [dm]/unit)                   0.1062          -99
      Number at maturity (no/unit)                         265.9          -99
      Tops weight at maturity (kg [dm]/ha)                  4611          -99
      By-product produced (stalk) at maturity (kg[dm]/ha    2891          -99
      Leaf area index, maximum                              1.31          -99
      Harvest index at maturity                            0.380          -99
      Grain N at maturity (kg/ha)                             32          -99
      Tops N at maturity (kg/ha)                              52          -99
      Stem N at maturity (kg/ha)                              20          -99
      Grain N at maturity (%)                                1.8          -99
      Tops weight at anthesis (kg [dm]/ha)                  2286          -99
      Tops N at anthesis (kg/ha)                              50          -99
      Leaf number per stem at maturity                     19.44          -99
      Emergence day (dap)                                      6          -99


*ENVIRONMENTAL AND STRESS FACTORS

 |-----Development Phase------|--------------------------------------Environment--------------------------------------|-----------------Stress-----------------|
                              |---------------Average--------------|-----Cumulative-----|--------Count of days--------|          (0=Min, 1=Max Stress)         |
                         Time  Temp  Temp  Temp Solar Photop                Evapo    Pot TMIN TMIN TMAX TMAX TMAX RAIN|----Water----|---Nitrogen--|-Phosphorus-|
                         Span   Max   Min  Mean   Rad  [day]    CO2   Rain  Trans     ET   <    <    >    >    >    >   Photo         Photo         Photo
                         days    邂    邂    邂 MJ/m2     hr    ppm     mm     mm     mm  0邂  2邂 30邂 32邂 34邂  0mm  synth Growth  synth Growth  synth Growth
----------------------------------------------------------------------------------------------------------------------------------------------------------------
 Emergence-End Juvenile    12  33.5  18.2  25.9  18.0   0.00  364.9    9.0   11.1   60.9    0    0   12   10    3    1  0.007  0.087  0.002  0.006  0.000  0.000
 End Juvenil-Floral Init    4  31.3  19.2  25.2  14.7   0.00  364.9    0.0    5.0   15.9    0    0    3    2    0    0  0.000  0.079  0.001  0.003  0.000  0.000
 Floral Init-End Lf Grow   31  33.6  19.1  26.3  18.6   0.00  365.1   27.0   62.5  151.7    0    0   30   27    8    4  0.377  0.505  0.180  0.341  0.000  0.000
 End Lf Grth-Beg Grn Fil   10  31.4  19.0  25.2  16.0   0.00  365.3   29.0   30.3   41.3    0    0    5    4    1    4  0.117  0.211  0.000  0.000  0.000  0.000
 Grain Filling Phase       43  32.3  19.1  25.7  17.2   8.07  365.6   82.1   55.2  198.7    0    0   36   26    4   14  0.650  0.697  0.000  0.000  0.000  0.000


 Planting to Harvest      109  32.6  18.9  25.8  17.5   3.65  365.3  155.6  177.0  513.0    0    0   94   74   16   25  0.375  0.451  0.051  0.098  0.000  0.000
----------------------------------------------------------------------------------------------------------------------------------------------------------------


*Resource Productivity
 Growing season length: 109 days 

 Precipitation during growing season       155.6 mm[rain]
   Dry Matter Productivity                  2.96 kg[DM]/m3[rain]          =   29.6 kg[DM]/ha per mm[rain]
   Yield Productivity                       1.13 kg[grain yield]/m3[rain] =   11.3 kg[yield]/ha per mm[rain]

 Evapotranspiration during growing season  177.0 mm[ET]
   Dry Matter Productivity                  2.61 kg[DM]/m3[ET]            =   26.1 kg[DM]/ha per mm[ET]
   Yield Productivity                       0.99 kg[grain yield]/m3[ET]   =    9.9 kg[yield]/ha per mm[ET]

 Transpiration during growing season        86.6 mm[EP]
   Dry Matter Productivity                  5.32 kg[DM]/m3[EP]            =   53.2 kg[DM]/ha per mm[EP]
   Yield Productivity                       2.02 kg[grain yield]/m3[EP]   =   20.2 kg[yield]/ha per mm[EP]

 N applied during growing season            161. kg[N applied]/ha
   Dry Matter Productivity                  28.6 kg[DM]/kg[N applied]
   Yield Productivity                       10.9 kg[yield]/kg[N applied]

 N uptake during growing season               58 kg[N uptake]/ha
   Dry Matter Productivity                  79.5 kg[DM]/kg[N uptake]
   Yield Productivity                       30.2 kg[yield]/kg[N uptake]

--------------------------------------------------------------------------------------------------------------

                     Maize YIELD :     1751 kg/ha    [Dry weight] 

**************************************************************************************************************
