*SIMULATION OVERVIEW FILE

*DSSAT Cropping System Model Ver. 4.6.1.000 -release      OCT 24, 2017; 10:51:18
                                                                                
*RUN   1        : P04/02                    MZCER046 ANBU2009    1              
 MODEL          : MZCER046 - Maize                                              
 EXPERIMENT     : ANBU2009 MZ  Analisis a침os de bajo rendimiento Buga          
 DATA PATH      : C:\DSSAT46\maize\                                             
 TREATMENT  1   : P04/02                    MZCER046                            
                                                                                
                                                                                
 CROP           : Maize            CULTIVAR : FNC3056          ECOTYPE :IB0001  
 STARTING DATE  : MAR  3 2009                                                   
 PLANTING DATE  : APR  2 2009        PLANTS/m2 :  6.2     ROW SPACING :  80.cm  
 WEATHER        : CUNI   2009                                                   
 SOIL           : CCBUGA2017     TEXTURE : CL    -   Suelo Buga MADR Fase I     
 SOIL INITIAL C : DEPTH: 90cm EXTR. H2O: 83.9mm  NO3:  0.0kg/ha  NH4:  0.0kg/ha 
 WATER BALANCE  : RAINFED                                                       
 IRRIGATION     : NOT IRRIGATED                                                 
 NITROGEN BAL.  : SOIL-N & N-UPTAKE SIMULATION; NO N-FIXATION                   
 N-FERTILIZER   :      161 kg/ha IN     5 APPLICATIONS                          
 RESIDUE/MANURE : INITIAL :     0 kg/ha ;       0 kg/ha IN     0 APPLICATIONS   
 ENVIRONM. OPT. : DAYL=    0.00  SRAD=    0.00  TMAX=    0.00  TMIN=    0.00    
                  RAIN=    0.00  CO2 =    0.00  DEW =    0.00  WIND=    0.00    
 SIMULATION OPT : WATER   :Y  NITROGEN:Y  N-FIX:N  PHOSPH :N  PESTS  :N         
                  PHOTO   :C  ET      :R  INFIL:S  HYDROL :R  SOM    :G         
                  CO2 387ppm  NSWIT   :1  EVAP :S  SOIL   :2  STEMP  :D         
 MANAGEMENT OPT : PLANTING:R  IRRIG   :N  FERT :D  RESIDUE:R  HARVEST:M         
                  WEATHER :M  TILLAGE :N                                        
                                                                                
*SUMMARY OF SOIL AND GENETIC INPUT PARAMETERS                                   
                                                                                
   SOIL LOWER UPPER   SAT  EXTR  INIT   ROOT   BULK     pH    NO3    NH4    ORG 
  DEPTH LIMIT LIMIT    SW    SW    SW   DIST   DENS                          C  
   cm   cm3/cm3    cm3/cm3    cm3/cm3         g/cm3         ugN/g  ugN/g     %  
------------------------------------------------------------------------------- 
  0-  5 0.215 0.331 0.341 0.116 0.331   1.00   1.68   6.70   0.00   0.00   0.75 
  5- 15 0.215 0.331 0.341 0.116 0.331   1.00   1.68   6.70   0.00   0.00   0.75 
 15- 25 0.215 0.331 0.341 0.116 0.331   1.00   1.68   6.70   0.00   0.00   0.75 
 25- 35 0.181 0.291 0.364 0.110 0.291   0.50   1.61   7.20   0.00   0.00   0.53 
 35- 45 0.181 0.291 0.364 0.110 0.291   0.50   1.61   7.20   0.00   0.00   0.53 
 45- 67 0.096 0.169 0.404 0.073 0.169   0.27   1.51   7.00   0.00   0.00   0.05 
 67- 90 0.096 0.169 0.404 0.073 0.169   0.27   1.51   7.00   0.00   0.00   0.05 
                                                                                
TOT- 90  13.3  21.7  34.0   8.4  21.7  <--cm   -  kg/ha-->    0.0    0.0  51964 
SOIL ALBEDO    : 0.09      EVAPORATION LIMIT : 6.00         MIN. FACTOR  : 1.00 
RUNOFF CURVE # :76.00      DRAINAGE RATE     : 0.60         FERT. FACTOR : 1.00 
                                                                                
 Maize      CULTIVAR :CI0003-FNC3056            ECOTYPE :IB0001                 
 P1     : 233.00  P2     : 0.5000  P5     : 976.00                              
 G2     : 956.00  G3     :  7.500  PHINT  : 45.600                              


*SIMULATED CROP AND SOIL STATUS AT MAIN DEVELOPMENT STAGES

 RUN NO.     1     P04/02                  

        CROP GROWTH     BIOMASS         LEAF   CROP N     STRESS      STRESS                                           
   DATE  AGE STAGE        kg/ha    LAI   NUM  kg/ha  %   H2O  Nitr Phos1 Phos2  RSTG                                   
 ------  --- ----------   -----  -----  ----  ---  ---  ----  ----  ----  ----  ----                                   
  3 MAR    0 Start Sim        0   0.00   0.0    0  0.0  0.00  0.00  0.00  0.00     7
  2 APR    0 Sowing           0   0.00   0.0    0  0.0  0.00  0.00  0.00  0.00     8
  3 APR    1 Germinate        0   0.00   0.0    0  0.0  0.00  0.00  0.00  0.00     9
  8 APR    6 Emergence       25   0.00   2.0    1  4.4  0.00  0.01  0.00  0.00     1
 20 APR   18 End Juveni      84   0.18   7.5    3  3.2  0.00  0.00  0.00  0.00     2
 27 APR   25 Floral Ini     351   0.62  10.4   13  3.6  0.00  0.00  0.00  0.00     3
  3 JUN   62 75% Silkin    5702   2.73  22.0  114  2.0  0.20  0.10  0.00  0.00     4
 13 JUN   72 Beg Gr Fil    7861   2.73  22.0  116  1.5  0.00  0.00  0.00  0.00     5
 29 JUL  118 End Gr Fil   15671   1.47  22.0  181  1.2  0.28  0.10  0.00  0.00     6
  1 AUG  121 Maturity     15671   1.47  22.0  181  1.2  0.94  0.45  0.00  0.00    10
  1 AUG  121 Harvest      15671   1.47  22.0  181  1.2  0.00  0.00  0.00  0.00    10


*MAIN GROWTH AND DEVELOPMENT VARIABLES

@     VARIABLE                                         SIMULATED     MEASURED
      --------                                         ---------     --------
      Anthesis day (dap)                                      62          -99
      Physiological maturity day (dap)                       121          -99
      Yield at harvest maturity (kg [dm]/ha)                8759          -99
      Number at maturity (no/m2)                            2890          -99
      Unit wt at maturity (g [dm]/unit)                   0.3031          -99
      Number at maturity (no/unit)                         466.2          -99
      Tops weight at maturity (kg [dm]/ha)                 15671          -99
      By-product produced (stalk) at maturity (kg[dm]/ha    6970          -99
      Leaf area index, maximum                              2.94          -99
      Harvest index at maturity                            0.559          -99
      Grain N at maturity (kg/ha)                            145          -99
      Tops N at maturity (kg/ha)                             181          -99
      Stem N at maturity (kg/ha)                              36          -99
      Grain N at maturity (%)                                1.7          -99
      Tops weight at anthesis (kg [dm]/ha)                  5448          -99
      Tops N at anthesis (kg/ha)                             112          -99
      Leaf number per stem at maturity                     22.02          -99
      Emergence day (dap)                                      6          -99


*ENVIRONMENTAL AND STRESS FACTORS

 |-----Development Phase------|--------------------------------------Environment--------------------------------------|-----------------Stress-----------------|
                              |---------------Average--------------|-----Cumulative-----|--------Count of days--------|          (0=Min, 1=Max Stress)         |
                         Time  Temp  Temp  Temp Solar Photop                Evapo    Pot TMIN TMIN TMAX TMAX TMAX RAIN|----Water----|---Nitrogen--|-Phosphorus-|
                         Span   Max   Min  Mean   Rad  [day]    CO2   Rain  Trans     ET   <    <    >    >    >    >   Photo         Photo         Photo
                         days    邂    邂    邂 MJ/m2     hr    ppm     mm     mm     mm  0邂  2邂 30邂 32邂 34邂  0mm  synth Growth  synth Growth  synth Growth
----------------------------------------------------------------------------------------------------------------------------------------------------------------
 Emergence-End Juvenile    12  31.4  19.6  25.5  17.0  21.85  386.8   18.3   27.8   57.8    0    0   11    3    0    6  0.000  0.000  0.002  0.005  0.000  0.000
 End Juvenil-Floral Init    7  32.0  19.8  25.9  15.7  24.00  386.9    8.9   11.0   30.2    0    0    5    2    1    1  0.000  0.000  0.000  0.001  0.000  0.000
 Floral Init-End Lf Grow   37  31.3  18.9  25.1  16.2  24.00  387.0   83.5  121.3  148.3    0    0   26   10    1   16  0.136  0.188  0.039  0.097  0.000  0.000
 End Lf Grth-Beg Grn Fil   10  30.9  19.6  25.3  16.8  24.00  387.1   90.7   39.9   40.8    0    0    6    2    1    7  0.016  0.049  0.000  0.000  0.000  0.000
 Grain Filling Phase       46  30.3  18.2  24.3  16.2  24.00  387.3   93.3  138.6  178.6    0    0   23    9    0    9  0.221  0.256  0.035  0.089  0.000  0.000


 Planting to Harvest      121  30.9  18.8  24.9  16.6  23.43  387.1  303.7  356.2  504.8    0    0   76   28    3   40  0.149  0.182  0.030  0.075  0.000  0.000
----------------------------------------------------------------------------------------------------------------------------------------------------------------


*Resource Productivity
 Growing season length: 121 days 

 Precipitation during growing season       303.7 mm[rain]
   Dry Matter Productivity                  5.16 kg[DM]/m3[rain]          =   51.6 kg[DM]/ha per mm[rain]
   Yield Productivity                       2.88 kg[grain yield]/m3[rain] =   28.8 kg[yield]/ha per mm[rain]

 Evapotranspiration during growing season  356.2 mm[ET]
   Dry Matter Productivity                  4.40 kg[DM]/m3[ET]            =   44.0 kg[DM]/ha per mm[ET]
   Yield Productivity                       2.46 kg[grain yield]/m3[ET]   =   24.6 kg[yield]/ha per mm[ET]

 Transpiration during growing season       239.7 mm[EP]
   Dry Matter Productivity                  6.54 kg[DM]/m3[EP]            =   65.4 kg[DM]/ha per mm[EP]
   Yield Productivity                       3.65 kg[grain yield]/m3[EP]   =   36.5 kg[yield]/ha per mm[EP]

 N applied during growing season            161. kg[N applied]/ha
   Dry Matter Productivity                  97.3 kg[DM]/kg[N applied]
   Yield Productivity                       54.4 kg[yield]/kg[N applied]

 N uptake during growing season              198 kg[N uptake]/ha
   Dry Matter Productivity                  79.1 kg[DM]/kg[N uptake]
   Yield Productivity                       44.2 kg[yield]/kg[N uptake]

--------------------------------------------------------------------------------------------------------------

                     Maize YIELD :     8759 kg/ha    [Dry weight] 

**************************************************************************************************************

*DSSAT Cropping System Model Ver. 4.6.1.000 -release      OCT 24, 2017; 10:51:18
                                                                                
*RUN   2        : P04/07                    MZCER046 ANBU2009    2              
 MODEL          : MZCER046 - Maize                                              
 EXPERIMENT     : ANBU2009 MZ  Analisis a침os de bajo rendimiento Buga          
 DATA PATH      : C:\DSSAT46\maize\                                             
 TREATMENT  2   : P04/07                    MZCER046                            
                                                                                
                                                                                
 CROP           : Maize            CULTIVAR : FNC3056          ECOTYPE :IB0001  
 STARTING DATE  : MAR  8 2009                                                   
 PLANTING DATE  : APR  7 2009        PLANTS/m2 :  6.2     ROW SPACING :  80.cm  
 WEATHER        : CUNI   2009                                                   
 SOIL           : CCBUGA2017     TEXTURE : CL    -   Suelo Buga MADR Fase I     
 SOIL INITIAL C : DEPTH: 90cm EXTR. H2O: 83.9mm  NO3:  0.0kg/ha  NH4:  0.0kg/ha 
 WATER BALANCE  : RAINFED                                                       
 IRRIGATION     : NOT IRRIGATED                                                 
 NITROGEN BAL.  : SOIL-N & N-UPTAKE SIMULATION; NO N-FIXATION                   
 N-FERTILIZER   :      161 kg/ha IN     5 APPLICATIONS                          
 RESIDUE/MANURE : INITIAL :     0 kg/ha ;       0 kg/ha IN     0 APPLICATIONS   
 ENVIRONM. OPT. : DAYL=    0.00  SRAD=    0.00  TMAX=    0.00  TMIN=    0.00    
                  RAIN=    0.00  CO2 =    0.00  DEW =    0.00  WIND=    0.00    
 SIMULATION OPT : WATER   :Y  NITROGEN:Y  N-FIX:N  PHOSPH :N  PESTS  :N         
                  PHOTO   :C  ET      :R  INFIL:S  HYDROL :R  SOM    :G         
                  CO2 387ppm  NSWIT   :1  EVAP :S  SOIL   :2  STEMP  :D         
 MANAGEMENT OPT : PLANTING:R  IRRIG   :N  FERT :D  RESIDUE:R  HARVEST:M         
                  WEATHER :M  TILLAGE :N                                        
                                                                                
*SUMMARY OF SOIL AND GENETIC INPUT PARAMETERS                                   
                                                                                
   SOIL LOWER UPPER   SAT  EXTR  INIT   ROOT   BULK     pH    NO3    NH4    ORG 
  DEPTH LIMIT LIMIT    SW    SW    SW   DIST   DENS                          C  
   cm   cm3/cm3    cm3/cm3    cm3/cm3         g/cm3         ugN/g  ugN/g     %  
------------------------------------------------------------------------------- 
  0-  5 0.215 0.331 0.341 0.116 0.331   1.00   1.68   6.70   0.00   0.00   0.75 
  5- 15 0.215 0.331 0.341 0.116 0.331   1.00   1.68   6.70   0.00   0.00   0.75 
 15- 25 0.215 0.331 0.341 0.116 0.331   1.00   1.68   6.70   0.00   0.00   0.75 
 25- 35 0.181 0.291 0.364 0.110 0.291   0.50   1.61   7.20   0.00   0.00   0.53 
 35- 45 0.181 0.291 0.364 0.110 0.291   0.50   1.61   7.20   0.00   0.00   0.53 
 45- 67 0.096 0.169 0.404 0.073 0.169   0.27   1.51   7.00   0.00   0.00   0.05 
 67- 90 0.096 0.169 0.404 0.073 0.169   0.27   1.51   7.00   0.00   0.00   0.05 
                                                                                
TOT- 90  13.3  21.7  34.0   8.4  21.7  <--cm   -  kg/ha-->    0.0    0.0  51964 
SOIL ALBEDO    : 0.09      EVAPORATION LIMIT : 6.00         MIN. FACTOR  : 1.00 
RUNOFF CURVE # :76.00      DRAINAGE RATE     : 0.60         FERT. FACTOR : 1.00 
                                                                                
 Maize      CULTIVAR :CI0003-FNC3056            ECOTYPE :IB0001                 
 P1     : 233.00  P2     : 0.5000  P5     : 976.00                              
 G2     : 956.00  G3     :  7.500  PHINT  : 45.600                              


*SIMULATED CROP AND SOIL STATUS AT MAIN DEVELOPMENT STAGES

 RUN NO.     2     P04/07                  

        CROP GROWTH     BIOMASS         LEAF   CROP N     STRESS      STRESS                                           
   DATE  AGE STAGE        kg/ha    LAI   NUM  kg/ha  %   H2O  Nitr Phos1 Phos2  RSTG                                   
 ------  --- ----------   -----  -----  ----  ---  ---  ----  ----  ----  ----  ----                                   
  8 MAR    0 Start Sim        0   0.00   0.0    0  0.0  0.00  0.00  0.00  0.00     7
  7 APR    0 Sowing           0   0.00   0.0    0  0.0  0.00  0.00  0.00  0.00     8
  8 APR    1 Germinate        0   0.00   0.0    0  0.0  0.00  0.00  0.00  0.00     9
 13 APR    6 Emergence       25   0.00   2.1    1  4.4  0.00  0.01  0.00  0.00     1
 25 APR   18 End Juveni      96   0.21   7.6    3  3.2  0.00  0.00  0.00  0.00     2
  3 MAY   26 Floral Ini     359   0.63  10.8   13  3.6  0.00  0.00  0.00  0.00     3
  9 JUN   63 75% Silkin    5996   2.95  22.4  120  2.0  0.16  0.12  0.00  0.00     4
 20 JUN   74 Beg Gr Fil    8240   2.95  22.4  124  1.5  0.00  0.00  0.00  0.00     5
  5 AUG  120 End Gr Fil   14524   1.25  22.4  177  1.2  0.42  0.02  0.00  0.00     6
  8 AUG  123 Maturity     14524   1.25  22.4  177  1.2  0.95  0.14  0.00  0.00    10
  8 AUG  123 Harvest      14524   1.25  22.4  177  1.2  0.00  0.00  0.00  0.00    10


*MAIN GROWTH AND DEVELOPMENT VARIABLES

@     VARIABLE                                         SIMULATED     MEASURED
      --------                                         ---------     --------
      Anthesis day (dap)                                      63          -99
      Physiological maturity day (dap)                       123          -99
      Yield at harvest maturity (kg [dm]/ha)                7672          -99
      Number at maturity (no/m2)                            2781          -99
      Unit wt at maturity (g [dm]/unit)                   0.2759          -99
      Number at maturity (no/unit)                         448.5          -99
      Tops weight at maturity (kg [dm]/ha)                 14524          -99
      By-product produced (stalk) at maturity (kg[dm]/ha    6911          -99
      Leaf area index, maximum                              2.95          -99
      Harvest index at maturity                            0.528          -99
      Grain N at maturity (kg/ha)                            134          -99
      Tops N at maturity (kg/ha)                             177          -99
      Stem N at maturity (kg/ha)                              43          -99
      Grain N at maturity (%)                                1.7          -99
      Tops weight at anthesis (kg [dm]/ha)                  5755          -99
      Tops N at anthesis (kg/ha)                             118          -99
      Leaf number per stem at maturity                     22.43          -99
      Emergence day (dap)                                      6          -99


*ENVIRONMENTAL AND STRESS FACTORS

 |-----Development Phase------|--------------------------------------Environment--------------------------------------|-----------------Stress-----------------|
                              |---------------Average--------------|-----Cumulative-----|--------Count of days--------|          (0=Min, 1=Max Stress)         |
                         Time  Temp  Temp  Temp Solar Photop                Evapo    Pot TMIN TMIN TMAX TMAX TMAX RAIN|----Water----|---Nitrogen--|-Phosphorus-|
                         Span   Max   Min  Mean   Rad  [day]    CO2   Rain  Trans     ET   <    <    >    >    >    >   Photo         Photo         Photo
                         days    邂    邂    邂 MJ/m2     hr    ppm     mm     mm     mm  0邂  2邂 30邂 32邂 34邂  0mm  synth Growth  synth Growth  synth Growth
----------------------------------------------------------------------------------------------------------------------------------------------------------------
 Emergence-End Juvenile    12  31.7  19.5  25.6  16.4  23.74  386.9    8.2   18.3   55.8    0    0   10    3    0    2  0.000  0.000  0.002  0.004  0.000  0.000
 End Juvenil-Floral Init    8  31.6  19.9  25.8  16.6  24.00  386.9   43.2   18.4   36.7    0    0    5    4    2    6  0.000  0.000  0.000  0.001  0.000  0.000
 Floral Init-End Lf Grow   37  31.5  18.9  25.2  16.6  24.00  387.0  123.4  130.6  152.3    0    0   28   10    1   15  0.098  0.163  0.050  0.125  0.000  0.000
 End Lf Grth-Beg Grn Fil   11  29.6  18.9  24.3  15.3  24.00  387.2   37.2   39.6   39.8    0    0    3    0    0    5  0.000  0.000  0.000  0.000  0.000  0.000
 Grain Filling Phase       46  30.9  18.1  24.5  16.6  24.00  387.4   72.6  117.2  185.1    0    0   26   14    4    7  0.364  0.403  0.008  0.019  0.000  0.000


 Planting to Harvest      123  31.1  18.8  24.9  16.5  23.74  387.1  308.3  341.0  509.8    0    0   79   32    7   41  0.188  0.223  0.020  0.049  0.000  0.000
----------------------------------------------------------------------------------------------------------------------------------------------------------------


*Resource Productivity
 Growing season length: 123 days 

 Precipitation during growing season       308.3 mm[rain]
   Dry Matter Productivity                  4.71 kg[DM]/m3[rain]          =   47.1 kg[DM]/ha per mm[rain]
   Yield Productivity                       2.49 kg[grain yield]/m3[rain] =   24.9 kg[yield]/ha per mm[rain]

 Evapotranspiration during growing season  341.0 mm[ET]
   Dry Matter Productivity                  4.26 kg[DM]/m3[ET]            =   42.6 kg[DM]/ha per mm[ET]
   Yield Productivity                       2.25 kg[grain yield]/m3[ET]   =   22.5 kg[yield]/ha per mm[ET]

 Transpiration during growing season       230.7 mm[EP]
   Dry Matter Productivity                  6.29 kg[DM]/m3[EP]            =   62.9 kg[DM]/ha per mm[EP]
   Yield Productivity                       3.33 kg[grain yield]/m3[EP]   =   33.3 kg[yield]/ha per mm[EP]

 N applied during growing season            161. kg[N applied]/ha
   Dry Matter Productivity                  90.2 kg[DM]/kg[N applied]
   Yield Productivity                       47.7 kg[yield]/kg[N applied]

 N uptake during growing season              196 kg[N uptake]/ha
   Dry Matter Productivity                  74.1 kg[DM]/kg[N uptake]
   Yield Productivity                       39.1 kg[yield]/kg[N uptake]

--------------------------------------------------------------------------------------------------------------

                     Maize YIELD :     7672 kg/ha    [Dry weight] 

**************************************************************************************************************

*DSSAT Cropping System Model Ver. 4.6.1.000 -release      OCT 24, 2017; 10:51:18
                                                                                
*RUN   3        : P04/12                    MZCER046 ANBU2009    3              
 MODEL          : MZCER046 - Maize                                              
 EXPERIMENT     : ANBU2009 MZ  Analisis a침os de bajo rendimiento Buga          
 DATA PATH      : C:\DSSAT46\maize\                                             
 TREATMENT  3   : P04/12                    MZCER046                            
                                                                                
                                                                                
 CROP           : Maize            CULTIVAR : FNC3056          ECOTYPE :IB0001  
 STARTING DATE  : MAR 13 2009                                                   
 PLANTING DATE  : APR 12 2009        PLANTS/m2 :  6.2     ROW SPACING :  80.cm  
 WEATHER        : CUNI   2009                                                   
 SOIL           : CCBUGA2017     TEXTURE : CL    -   Suelo Buga MADR Fase I     
 SOIL INITIAL C : DEPTH: 90cm EXTR. H2O: 83.9mm  NO3:  0.0kg/ha  NH4:  0.0kg/ha 
 WATER BALANCE  : RAINFED                                                       
 IRRIGATION     : NOT IRRIGATED                                                 
 NITROGEN BAL.  : SOIL-N & N-UPTAKE SIMULATION; NO N-FIXATION                   
 N-FERTILIZER   :      161 kg/ha IN     5 APPLICATIONS                          
 RESIDUE/MANURE : INITIAL :     0 kg/ha ;       0 kg/ha IN     0 APPLICATIONS   
 ENVIRONM. OPT. : DAYL=    0.00  SRAD=    0.00  TMAX=    0.00  TMIN=    0.00    
                  RAIN=    0.00  CO2 =    0.00  DEW =    0.00  WIND=    0.00    
 SIMULATION OPT : WATER   :Y  NITROGEN:Y  N-FIX:N  PHOSPH :N  PESTS  :N         
                  PHOTO   :C  ET      :R  INFIL:S  HYDROL :R  SOM    :G         
                  CO2 387ppm  NSWIT   :1  EVAP :S  SOIL   :2  STEMP  :D         
 MANAGEMENT OPT : PLANTING:R  IRRIG   :N  FERT :D  RESIDUE:R  HARVEST:M         
                  WEATHER :M  TILLAGE :N                                        
                                                                                
*SUMMARY OF SOIL AND GENETIC INPUT PARAMETERS                                   
                                                                                
   SOIL LOWER UPPER   SAT  EXTR  INIT   ROOT   BULK     pH    NO3    NH4    ORG 
  DEPTH LIMIT LIMIT    SW    SW    SW   DIST   DENS                          C  
   cm   cm3/cm3    cm3/cm3    cm3/cm3         g/cm3         ugN/g  ugN/g     %  
------------------------------------------------------------------------------- 
  0-  5 0.215 0.331 0.341 0.116 0.331   1.00   1.68   6.70   0.00   0.00   0.75 
  5- 15 0.215 0.331 0.341 0.116 0.331   1.00   1.68   6.70   0.00   0.00   0.75 
 15- 25 0.215 0.331 0.341 0.116 0.331   1.00   1.68   6.70   0.00   0.00   0.75 
 25- 35 0.181 0.291 0.364 0.110 0.291   0.50   1.61   7.20   0.00   0.00   0.53 
 35- 45 0.181 0.291 0.364 0.110 0.291   0.50   1.61   7.20   0.00   0.00   0.53 
 45- 67 0.096 0.169 0.404 0.073 0.169   0.27   1.51   7.00   0.00   0.00   0.05 
 67- 90 0.096 0.169 0.404 0.073 0.169   0.27   1.51   7.00   0.00   0.00   0.05 
                                                                                
TOT- 90  13.3  21.7  34.0   8.4  21.7  <--cm   -  kg/ha-->    0.0    0.0  51964 
SOIL ALBEDO    : 0.09      EVAPORATION LIMIT : 6.00         MIN. FACTOR  : 1.00 
RUNOFF CURVE # :76.00      DRAINAGE RATE     : 0.60         FERT. FACTOR : 1.00 
                                                                                
 Maize      CULTIVAR :CI0003-FNC3056            ECOTYPE :IB0001                 
 P1     : 233.00  P2     : 0.5000  P5     : 976.00                              
 G2     : 956.00  G3     :  7.500  PHINT  : 45.600                              


*SIMULATED CROP AND SOIL STATUS AT MAIN DEVELOPMENT STAGES

 RUN NO.     3     P04/12                  

        CROP GROWTH     BIOMASS         LEAF   CROP N     STRESS      STRESS                                           
   DATE  AGE STAGE        kg/ha    LAI   NUM  kg/ha  %   H2O  Nitr Phos1 Phos2  RSTG                                   
 ------  --- ----------   -----  -----  ----  ---  ---  ----  ----  ----  ----  ----                                   
 13 MAR    0 Start Sim        0   0.00   0.0    0  0.0  0.00  0.00  0.00  0.00     7
 12 APR    0 Sowing           0   0.00   0.0    0  0.0  0.00  0.00  0.00  0.00     8
 13 APR    1 Germinate        0   0.00   0.0    0  0.0  0.00  0.00  0.00  0.00     9
 18 APR    6 Emergence       25   0.00   2.1    1  4.4  0.00  0.01  0.00  0.00     1
 30 APR   18 End Juveni      82   0.18   7.5    3  3.6  0.00  0.00  0.00  0.00     2
  8 MAY   26 Floral Ini     327   0.59  10.7   12  3.6  0.00  0.00  0.00  0.00     3
 14 JUN   63 75% Silkin    5801   2.94  22.4  116  2.0  0.10  0.16  0.00  0.00     4
 25 JUN   74 Beg Gr Fil    7993   2.94  22.4  119  1.5  0.00  0.00  0.00  0.00     5
  9 AUG  119 End Gr Fil   13165   1.05  22.4  161  1.2  0.51  0.00  0.00  0.00     6
 12 AUG  122 Maturity     13165   1.05  22.4  161  1.2  0.95  0.00  0.00  0.00    10
 12 AUG  122 Harvest      13165   1.05  22.4  161  1.2  0.00  0.00  0.00  0.00    10


*MAIN GROWTH AND DEVELOPMENT VARIABLES

@     VARIABLE                                         SIMULATED     MEASURED
      --------                                         ---------     --------
      Anthesis day (dap)                                      63          -99
      Physiological maturity day (dap)                       122          -99
      Yield at harvest maturity (kg [dm]/ha)                6599          -99
      Number at maturity (no/m2)                            2694          -99
      Unit wt at maturity (g [dm]/unit)                   0.2450          -99
      Number at maturity (no/unit)                         434.5          -99
      Tops weight at maturity (kg [dm]/ha)                 13165          -99
      By-product produced (stalk) at maturity (kg[dm]/ha    6623          -99
      Leaf area index, maximum                              2.94          -99
      Harvest index at maturity                            0.501          -99
      Grain N at maturity (kg/ha)                            117          -99
      Tops N at maturity (kg/ha)                             161          -99
      Stem N at maturity (kg/ha)                              44          -99
      Grain N at maturity (%)                                1.8          -99
      Tops weight at anthesis (kg [dm]/ha)                  5575          -99
      Tops N at anthesis (kg/ha)                             113          -99
      Leaf number per stem at maturity                     22.40          -99
      Emergence day (dap)                                      6          -99


*ENVIRONMENTAL AND STRESS FACTORS

 |-----Development Phase------|--------------------------------------Environment--------------------------------------|-----------------Stress-----------------|
                              |---------------Average--------------|-----Cumulative-----|--------Count of days--------|          (0=Min, 1=Max Stress)         |
                         Time  Temp  Temp  Temp Solar Photop                Evapo    Pot TMIN TMIN TMAX TMAX TMAX RAIN|----Water----|---Nitrogen--|-Phosphorus-|
                         Span   Max   Min  Mean   Rad  [day]    CO2   Rain  Trans     ET   <    <    >    >    >    >   Photo         Photo         Photo
                         days    邂    邂    邂 MJ/m2     hr    ppm     mm     mm     mm  0邂  2邂 30邂 32邂 34邂  0mm  synth Growth  synth Growth  synth Growth
----------------------------------------------------------------------------------------------------------------------------------------------------------------
 Emergence-End Juvenile    12  32.0  20.0  26.0  15.4  24.00  386.9   15.8   14.2   52.5    0    0    8    4    2    3  0.000  0.000  0.002  0.004  0.000  0.000
 End Juvenil-Floral Init    8  30.0  19.4  24.7  15.8  24.00  386.9   35.2   31.4   34.5    0    0    5    1    0    5  0.000  0.000  0.000  0.001  0.000  0.000
 Floral Init-End Lf Grow   37  31.4  18.9  25.1  16.3  24.00  387.1  133.8  126.6  150.3    0    0   26   10    1   17  0.042  0.104  0.076  0.161  0.000  0.000
 End Lf Grth-Beg Grn Fil   11  29.2  18.3  23.8  14.8  24.00  387.3   24.8   38.0   38.2    0    0    3    0    0    3  0.000  0.000  0.000  0.000  0.000  0.000
 Grain Filling Phase       45  31.2  18.2  24.7  17.1  24.00  387.4   73.8  105.9  187.5    0    0   28   15    4    7  0.447  0.491  0.000  0.000  0.000  0.000


 Planting to Harvest      122  31.2  18.7  25.0  16.5  23.95  387.2  291.6  334.7  509.5    0    0   79   34    7   37  0.200  0.236  0.023  0.049  0.000  0.000
----------------------------------------------------------------------------------------------------------------------------------------------------------------


*Resource Productivity
 Growing season length: 122 days 

 Precipitation during growing season       291.6 mm[rain]
   Dry Matter Productivity                  4.51 kg[DM]/m3[rain]          =   45.1 kg[DM]/ha per mm[rain]
   Yield Productivity                       2.26 kg[grain yield]/m3[rain] =   22.6 kg[yield]/ha per mm[rain]

 Evapotranspiration during growing season  334.7 mm[ET]
   Dry Matter Productivity                  3.93 kg[DM]/m3[ET]            =   39.3 kg[DM]/ha per mm[ET]
   Yield Productivity                       1.97 kg[grain yield]/m3[ET]   =   19.7 kg[yield]/ha per mm[ET]

 Transpiration during growing season       218.9 mm[EP]
   Dry Matter Productivity                  6.01 kg[DM]/m3[EP]            =   60.1 kg[DM]/ha per mm[EP]
   Yield Productivity                       3.01 kg[grain yield]/m3[EP]   =   30.1 kg[yield]/ha per mm[EP]

 N applied during growing season            161. kg[N applied]/ha
   Dry Matter Productivity                  81.8 kg[DM]/kg[N applied]
   Yield Productivity                       41.0 kg[yield]/kg[N applied]

 N uptake during growing season              180 kg[N uptake]/ha
   Dry Matter Productivity                  73.1 kg[DM]/kg[N uptake]
   Yield Productivity                       36.7 kg[yield]/kg[N uptake]

--------------------------------------------------------------------------------------------------------------

                     Maize YIELD :     6599 kg/ha    [Dry weight] 

**************************************************************************************************************

*DSSAT Cropping System Model Ver. 4.6.1.000 -release      OCT 24, 2017; 10:51:19
                                                                                
*RUN   4        : P04/17                    MZCER046 ANBU2009    4              
 MODEL          : MZCER046 - Maize                                              
 EXPERIMENT     : ANBU2009 MZ  Analisis a침os de bajo rendimiento Buga          
 DATA PATH      : C:\DSSAT46\maize\                                             
 TREATMENT  4   : P04/17                    MZCER046                            
                                                                                
                                                                                
 CROP           : Maize            CULTIVAR : FNC3056          ECOTYPE :IB0001  
 STARTING DATE  : MAR 18 2009                                                   
 PLANTING DATE  : APR 17 2009        PLANTS/m2 :  6.2     ROW SPACING :  80.cm  
 WEATHER        : CUNI   2009                                                   
 SOIL           : CCBUGA2017     TEXTURE : CL    -   Suelo Buga MADR Fase I     
 SOIL INITIAL C : DEPTH: 90cm EXTR. H2O: 83.9mm  NO3:  0.0kg/ha  NH4:  0.0kg/ha 
 WATER BALANCE  : RAINFED                                                       
 IRRIGATION     : NOT IRRIGATED                                                 
 NITROGEN BAL.  : SOIL-N & N-UPTAKE SIMULATION; NO N-FIXATION                   
 N-FERTILIZER   :      161 kg/ha IN     5 APPLICATIONS                          
 RESIDUE/MANURE : INITIAL :     0 kg/ha ;       0 kg/ha IN     0 APPLICATIONS   
 ENVIRONM. OPT. : DAYL=    0.00  SRAD=    0.00  TMAX=    0.00  TMIN=    0.00    
                  RAIN=    0.00  CO2 =    0.00  DEW =    0.00  WIND=    0.00    
 SIMULATION OPT : WATER   :Y  NITROGEN:Y  N-FIX:N  PHOSPH :N  PESTS  :N         
                  PHOTO   :C  ET      :R  INFIL:S  HYDROL :R  SOM    :G         
                  CO2 387ppm  NSWIT   :1  EVAP :S  SOIL   :2  STEMP  :D         
 MANAGEMENT OPT : PLANTING:R  IRRIG   :N  FERT :D  RESIDUE:R  HARVEST:M         
                  WEATHER :M  TILLAGE :N                                        
                                                                                
*SUMMARY OF SOIL AND GENETIC INPUT PARAMETERS                                   
                                                                                
   SOIL LOWER UPPER   SAT  EXTR  INIT   ROOT   BULK     pH    NO3    NH4    ORG 
  DEPTH LIMIT LIMIT    SW    SW    SW   DIST   DENS                          C  
   cm   cm3/cm3    cm3/cm3    cm3/cm3         g/cm3         ugN/g  ugN/g     %  
------------------------------------------------------------------------------- 
  0-  5 0.215 0.331 0.341 0.116 0.331   1.00   1.68   6.70   0.00   0.00   0.75 
  5- 15 0.215 0.331 0.341 0.116 0.331   1.00   1.68   6.70   0.00   0.00   0.75 
 15- 25 0.215 0.331 0.341 0.116 0.331   1.00   1.68   6.70   0.00   0.00   0.75 
 25- 35 0.181 0.291 0.364 0.110 0.291   0.50   1.61   7.20   0.00   0.00   0.53 
 35- 45 0.181 0.291 0.364 0.110 0.291   0.50   1.61   7.20   0.00   0.00   0.53 
 45- 67 0.096 0.169 0.404 0.073 0.169   0.27   1.51   7.00   0.00   0.00   0.05 
 67- 90 0.096 0.169 0.404 0.073 0.169   0.27   1.51   7.00   0.00   0.00   0.05 
                                                                                
TOT- 90  13.3  21.7  34.0   8.4  21.7  <--cm   -  kg/ha-->    0.0    0.0  51964 
SOIL ALBEDO    : 0.09      EVAPORATION LIMIT : 6.00         MIN. FACTOR  : 1.00 
RUNOFF CURVE # :76.00      DRAINAGE RATE     : 0.60         FERT. FACTOR : 1.00 
                                                                                
 Maize      CULTIVAR :CI0003-FNC3056            ECOTYPE :IB0001                 
 P1     : 233.00  P2     : 0.5000  P5     : 976.00                              
 G2     : 956.00  G3     :  7.500  PHINT  : 45.600                              


*SIMULATED CROP AND SOIL STATUS AT MAIN DEVELOPMENT STAGES

 RUN NO.     4     P04/17                  

        CROP GROWTH     BIOMASS         LEAF   CROP N     STRESS      STRESS                                           
   DATE  AGE STAGE        kg/ha    LAI   NUM  kg/ha  %   H2O  Nitr Phos1 Phos2  RSTG                                   
 ------  --- ----------   -----  -----  ----  ---  ---  ----  ----  ----  ----  ----                                   
 18 MAR    0 Start Sim        0   0.00   0.0    0  0.0  0.00  0.00  0.00  0.00     7
 17 APR    0 Sowing           0   0.00   0.0    0  0.0  0.00  0.00  0.00  0.00     8
 18 APR    1 Germinate        0   0.00   0.0    0  0.0  0.00  0.00  0.00  0.00     9
 23 APR    6 Emergence       25   0.00   2.1    1  4.4  0.00  0.01  0.00  0.00     1
  5 MAY   18 End Juveni      67   0.15   7.5    2  3.2  0.00  0.00  0.00  0.00     2
 13 MAY   26 Floral Ini     370   0.65  10.6   13  3.6  0.00  0.00  0.00  0.00     3
 19 JUN   63 75% Silkin    6018   3.26  22.3  116  1.9  0.05  0.13  0.00  0.00     4
 30 JUN   74 Beg Gr Fil    8114   3.26  22.3  117  1.4  0.00  0.00  0.00  0.00     5
 14 AUG  119 End Gr Fil   12802   0.99  22.3  151  1.2  0.55  0.00  0.00  0.00     6
 16 AUG  121 Maturity     12802   0.99  22.3  151  1.2  0.81  0.00  0.00  0.00    10
 16 AUG  121 Harvest      12802   0.99  22.3  151  1.2  0.00  0.00  0.00  0.00    10


*MAIN GROWTH AND DEVELOPMENT VARIABLES

@     VARIABLE                                         SIMULATED     MEASURED
      --------                                         ---------     --------
      Anthesis day (dap)                                      63          -99
      Physiological maturity day (dap)                       121          -99
      Yield at harvest maturity (kg [dm]/ha)                5811          -99
      Number at maturity (no/m2)                            2612          -99
      Unit wt at maturity (g [dm]/unit)                   0.2225          -99
      Number at maturity (no/unit)                         421.3          -99
      Tops weight at maturity (kg [dm]/ha)                 12802          -99
      By-product produced (stalk) at maturity (kg[dm]/ha    7049          -99
      Leaf area index, maximum                              3.26          -99
      Harvest index at maturity                            0.454          -99
      Grain N at maturity (kg/ha)                            103          -99
      Tops N at maturity (kg/ha)                             151          -99
      Stem N at maturity (kg/ha)                              47          -99
      Grain N at maturity (%)                                1.8          -99
      Tops weight at anthesis (kg [dm]/ha)                  5809          -99
      Tops N at anthesis (kg/ha)                             116          -99
      Leaf number per stem at maturity                     22.30          -99
      Emergence day (dap)                                      6          -99


*ENVIRONMENTAL AND STRESS FACTORS

 |-----Development Phase------|--------------------------------------Environment--------------------------------------|-----------------Stress-----------------|
                              |---------------Average--------------|-----Cumulative-----|--------Count of days--------|          (0=Min, 1=Max Stress)         |
                         Time  Temp  Temp  Temp Solar Photop                Evapo    Pot TMIN TMIN TMAX TMAX TMAX RAIN|----Water----|---Nitrogen--|-Phosphorus-|
                         Span   Max   Min  Mean   Rad  [day]    CO2   Rain  Trans     ET   <    <    >    >    >    >   Photo         Photo         Photo
                         days    邂    邂    邂 MJ/m2     hr    ppm     mm     mm     mm  0邂  2邂 30邂 32邂 34邂  0mm  synth Growth  synth Growth  synth Growth
----------------------------------------------------------------------------------------------------------------------------------------------------------------
 Emergence-End Juvenile    12  31.2  19.8  25.5  15.6  24.00  386.9   51.0   28.2   53.2    0    0    6    4    2    8  0.000  0.000  0.002  0.004  0.000  0.000
 End Juvenil-Floral Init    8  31.1  18.4  24.7  18.7  24.00  386.9    4.8   18.8   40.5    0    0    7    0    0    3  0.000  0.000  0.000  0.000  0.000  0.000
 Floral Init-End Lf Grow   37  31.2  19.0  25.1  16.0  24.00  387.1  148.0  130.0  147.0    0    0   24   10    1   15  0.006  0.045  0.062  0.132  0.000  0.000
 End Lf Grth-Beg Grn Fil   11  28.3  18.1  23.2  13.8  24.00  387.3   25.1   34.9   35.0    0    0    2    0    0    3  0.000  0.000  0.000  0.000  0.000  0.000
 Grain Filling Phase       45  31.8  18.3  25.1  17.3  24.00  387.4   65.1  102.1  191.0    0    0   32   19    4    7  0.502  0.550  0.000  0.000  0.000  0.000


 Planting to Harvest      121  31.2  18.7  25.0  16.5  24.00  387.2  294.0  325.7  502.9    0    0   78   37    8   36  0.194  0.225  0.019  0.041  0.000  0.000
----------------------------------------------------------------------------------------------------------------------------------------------------------------


*Resource Productivity
 Growing season length: 121 days 

 Precipitation during growing season       294.0 mm[rain]
   Dry Matter Productivity                  4.35 kg[DM]/m3[rain]          =   43.5 kg[DM]/ha per mm[rain]
   Yield Productivity                       1.98 kg[grain yield]/m3[rain] =   19.8 kg[yield]/ha per mm[rain]

 Evapotranspiration during growing season  325.7 mm[ET]
   Dry Matter Productivity                  3.93 kg[DM]/m3[ET]            =   39.3 kg[DM]/ha per mm[ET]
   Yield Productivity                       1.78 kg[grain yield]/m3[ET]   =   17.8 kg[yield]/ha per mm[ET]

 Transpiration during growing season       221.1 mm[EP]
   Dry Matter Productivity                  5.79 kg[DM]/m3[EP]            =   57.9 kg[DM]/ha per mm[EP]
   Yield Productivity                       2.63 kg[grain yield]/m3[EP]   =   26.3 kg[yield]/ha per mm[EP]

 N applied during growing season            161. kg[N applied]/ha
   Dry Matter Productivity                  79.5 kg[DM]/kg[N applied]
   Yield Productivity                       36.1 kg[yield]/kg[N applied]

 N uptake during growing season              169 kg[N uptake]/ha
   Dry Matter Productivity                  75.8 kg[DM]/kg[N uptake]
   Yield Productivity                       34.4 kg[yield]/kg[N uptake]

--------------------------------------------------------------------------------------------------------------

                     Maize YIELD :     5811 kg/ha    [Dry weight] 

**************************************************************************************************************

*DSSAT Cropping System Model Ver. 4.6.1.000 -release      OCT 24, 2017; 10:51:19
                                                                                
*RUN   5        : P04/22                    MZCER046 ANBU2009    5              
 MODEL          : MZCER046 - Maize                                              
 EXPERIMENT     : ANBU2009 MZ  Analisis a침os de bajo rendimiento Buga          
 DATA PATH      : C:\DSSAT46\maize\                                             
 TREATMENT  5   : P04/22                    MZCER046                            
                                                                                
                                                                                
 CROP           : Maize            CULTIVAR : FNC3056          ECOTYPE :IB0001  
 STARTING DATE  : MAR 23 2009                                                   
 PLANTING DATE  : APR 22 2009        PLANTS/m2 :  6.2     ROW SPACING :  80.cm  
 WEATHER        : CUNI   2009                                                   
 SOIL           : CCBUGA2017     TEXTURE : CL    -   Suelo Buga MADR Fase I     
 SOIL INITIAL C : DEPTH: 90cm EXTR. H2O: 83.9mm  NO3:  0.0kg/ha  NH4:  0.0kg/ha 
 WATER BALANCE  : RAINFED                                                       
 IRRIGATION     : NOT IRRIGATED                                                 
 NITROGEN BAL.  : SOIL-N & N-UPTAKE SIMULATION; NO N-FIXATION                   
 N-FERTILIZER   :      161 kg/ha IN     5 APPLICATIONS                          
 RESIDUE/MANURE : INITIAL :     0 kg/ha ;       0 kg/ha IN     0 APPLICATIONS   
 ENVIRONM. OPT. : DAYL=    0.00  SRAD=    0.00  TMAX=    0.00  TMIN=    0.00    
                  RAIN=    0.00  CO2 =    0.00  DEW =    0.00  WIND=    0.00    
 SIMULATION OPT : WATER   :Y  NITROGEN:Y  N-FIX:N  PHOSPH :N  PESTS  :N         
                  PHOTO   :C  ET      :R  INFIL:S  HYDROL :R  SOM    :G         
                  CO2 387ppm  NSWIT   :1  EVAP :S  SOIL   :2  STEMP  :D         
 MANAGEMENT OPT : PLANTING:R  IRRIG   :N  FERT :D  RESIDUE:R  HARVEST:M         
                  WEATHER :M  TILLAGE :N                                        
                                                                                
*SUMMARY OF SOIL AND GENETIC INPUT PARAMETERS                                   
                                                                                
   SOIL LOWER UPPER   SAT  EXTR  INIT   ROOT   BULK     pH    NO3    NH4    ORG 
  DEPTH LIMIT LIMIT    SW    SW    SW   DIST   DENS                          C  
   cm   cm3/cm3    cm3/cm3    cm3/cm3         g/cm3         ugN/g  ugN/g     %  
------------------------------------------------------------------------------- 
  0-  5 0.215 0.331 0.341 0.116 0.331   1.00   1.68   6.70   0.00   0.00   0.75 
  5- 15 0.215 0.331 0.341 0.116 0.331   1.00   1.68   6.70   0.00   0.00   0.75 
 15- 25 0.215 0.331 0.341 0.116 0.331   1.00   1.68   6.70   0.00   0.00   0.75 
 25- 35 0.181 0.291 0.364 0.110 0.291   0.50   1.61   7.20   0.00   0.00   0.53 
 35- 45 0.181 0.291 0.364 0.110 0.291   0.50   1.61   7.20   0.00   0.00   0.53 
 45- 67 0.096 0.169 0.404 0.073 0.169   0.27   1.51   7.00   0.00   0.00   0.05 
 67- 90 0.096 0.169 0.404 0.073 0.169   0.27   1.51   7.00   0.00   0.00   0.05 
                                                                                
TOT- 90  13.3  21.7  34.0   8.4  21.7  <--cm   -  kg/ha-->    0.0    0.0  51964 
SOIL ALBEDO    : 0.09      EVAPORATION LIMIT : 6.00         MIN. FACTOR  : 1.00 
RUNOFF CURVE # :76.00      DRAINAGE RATE     : 0.60         FERT. FACTOR : 1.00 
                                                                                
 Maize      CULTIVAR :CI0003-FNC3056            ECOTYPE :IB0001                 
 P1     : 233.00  P2     : 0.5000  P5     : 976.00                              
 G2     : 956.00  G3     :  7.500  PHINT  : 45.600                              


*SIMULATED CROP AND SOIL STATUS AT MAIN DEVELOPMENT STAGES

 RUN NO.     5     P04/22                  

        CROP GROWTH     BIOMASS         LEAF   CROP N     STRESS      STRESS                                           
   DATE  AGE STAGE        kg/ha    LAI   NUM  kg/ha  %   H2O  Nitr Phos1 Phos2  RSTG                                   
 ------  --- ----------   -----  -----  ----  ---  ---  ----  ----  ----  ----  ----                                   
 23 MAR    0 Start Sim        0   0.00   0.0    0  0.0  0.00  0.00  0.00  0.00     7
 22 APR    0 Sowing           0   0.00   0.0    0  0.0  0.00  0.00  0.00  0.00     8
 23 APR    1 Germinate        0   0.00   0.0    0  0.0  0.00  0.00  0.00  0.00     9
 27 APR    5 Emergence       25   0.00   2.2    1  4.4  0.00  0.01  0.00  0.00     1
 10 MAY   18 End Juveni      99   0.21   7.7    3  3.2  0.00  0.00  0.00  0.00     2
 18 MAY   26 Floral Ini     459   0.78  10.8   13  2.9  0.00  0.00  0.00  0.00     3
 25 JUN   64 75% Silkin    6547   3.56  22.5  128  2.0  0.00  0.11  0.00  0.00     4
  6 JUL   75 Beg Gr Fil    8929   3.44  22.5  129  1.4  0.00  0.00  0.00  0.00     5
 18 AUG  118 End Gr Fil   13044   0.95  22.5  153  1.2  0.64  0.00  0.00  0.00     6
 21 AUG  121 Maturity     13044   0.95  22.5  153  1.2  0.93  0.00  0.00  0.00    10
 21 AUG  121 Harvest      13044   0.95  22.5  153  1.2  0.00  0.00  0.00  0.00    10


*MAIN GROWTH AND DEVELOPMENT VARIABLES

@     VARIABLE                                         SIMULATED     MEASURED
      --------                                         ---------     --------
      Anthesis day (dap)                                      64          -99
      Physiological maturity day (dap)                       121          -99
      Yield at harvest maturity (kg [dm]/ha)                5608          -99
      Number at maturity (no/m2)                            2848          -99
      Unit wt at maturity (g [dm]/unit)                   0.1969          -99
      Number at maturity (no/unit)                         459.3          -99
      Tops weight at maturity (kg [dm]/ha)                 13044          -99
      By-product produced (stalk) at maturity (kg[dm]/ha    7498          -99
      Leaf area index, maximum                              3.56          -99
      Harvest index at maturity                            0.430          -99
      Grain N at maturity (kg/ha)                            101          -99
      Tops N at maturity (kg/ha)                             153          -99
      Stem N at maturity (kg/ha)                              52          -99
      Grain N at maturity (%)                                1.8          -99
      Tops weight at anthesis (kg [dm]/ha)                  6380          -99
      Tops N at anthesis (kg/ha)                             127          -99
      Leaf number per stem at maturity                     22.48          -99
      Emergence day (dap)                                      5          -99


*ENVIRONMENTAL AND STRESS FACTORS

 |-----Development Phase------|--------------------------------------Environment--------------------------------------|-----------------Stress-----------------|
                              |---------------Average--------------|-----Cumulative-----|--------Count of days--------|          (0=Min, 1=Max Stress)         |
                         Time  Temp  Temp  Temp Solar Photop                Evapo    Pot TMIN TMIN TMAX TMAX TMAX RAIN|----Water----|---Nitrogen--|-Phosphorus-|
                         Span   Max   Min  Mean   Rad  [day]    CO2   Rain  Trans     ET   <    <    >    >    >    >   Photo         Photo         Photo
                         days    邂    邂    邂 MJ/m2     hr    ppm     mm     mm     mm  0邂  2邂 30邂 32邂 34邂  0mm  synth Growth  synth Growth  synth Growth
----------------------------------------------------------------------------------------------------------------------------------------------------------------
 Emergence-End Juvenile    13  30.6  19.4  25.0  16.3  24.00  386.9   42.1   35.5   59.7    0    0    8    2    1    7  0.000  0.000  0.002  0.006  0.000  0.000
 End Juvenil-Floral Init    8  31.4  18.1  24.8  17.4  24.00  387.0    5.3   15.5   37.3    0    0    6    1    0    4  0.000  0.000  0.000  0.000  0.000  0.000
 Floral Init-End Lf Grow   38  30.7  19.0  24.8  15.5  24.00  387.1  153.3  131.5  145.1    0    0   21    9    1   16  0.000  0.004  0.049  0.108  0.000  0.000
 End Lf Grth-Beg Grn Fil   11  28.7  18.1  23.4  14.8  24.00  387.3   56.8   37.5   37.7    0    0    1    0    0    4  0.000  0.000  0.000  0.000  0.000  0.000
 Grain Filling Phase       43  32.2  18.4  25.3  17.7  24.00  387.4   33.2   89.1  187.7    0    0   35   21    5    6  0.580  0.635  0.000  0.000  0.000  0.000


 Planting to Harvest      121  31.2  18.7  24.9  16.5  24.00  387.2  306.3  319.0  502.9    0    0   78   35    8   39  0.221  0.242  0.016  0.034  0.000  0.000
----------------------------------------------------------------------------------------------------------------------------------------------------------------


*Resource Productivity
 Growing season length: 121 days 

 Precipitation during growing season       306.3 mm[rain]
   Dry Matter Productivity                  4.26 kg[DM]/m3[rain]          =   42.6 kg[DM]/ha per mm[rain]
   Yield Productivity                       1.83 kg[grain yield]/m3[rain] =   18.3 kg[yield]/ha per mm[rain]

 Evapotranspiration during growing season  319.0 mm[ET]
   Dry Matter Productivity                  4.09 kg[DM]/m3[ET]            =   40.9 kg[DM]/ha per mm[ET]
   Yield Productivity                       1.76 kg[grain yield]/m3[ET]   =   17.6 kg[yield]/ha per mm[ET]

 Transpiration during growing season       215.8 mm[EP]
   Dry Matter Productivity                  6.04 kg[DM]/m3[EP]            =   60.4 kg[DM]/ha per mm[EP]
   Yield Productivity                       2.60 kg[grain yield]/m3[EP]   =   26.0 kg[yield]/ha per mm[EP]

 N applied during growing season            161. kg[N applied]/ha
   Dry Matter Productivity                  81.0 kg[DM]/kg[N applied]
   Yield Productivity                       34.8 kg[yield]/kg[N applied]

 N uptake during growing season              170 kg[N uptake]/ha
   Dry Matter Productivity                  76.7 kg[DM]/kg[N uptake]
   Yield Productivity                       33.0 kg[yield]/kg[N uptake]

--------------------------------------------------------------------------------------------------------------

                     Maize YIELD :     5608 kg/ha    [Dry weight] 

**************************************************************************************************************

*DSSAT Cropping System Model Ver. 4.6.1.000 -release      OCT 24, 2017; 10:51:19
                                                                                
*RUN   6        : P04/27                    MZCER046 ANBU2009    6              
 MODEL          : MZCER046 - Maize                                              
 EXPERIMENT     : ANBU2009 MZ  Analisis a침os de bajo rendimiento Buga          
 DATA PATH      : C:\DSSAT46\maize\                                             
 TREATMENT  6   : P04/27                    MZCER046                            
                                                                                
                                                                                
 CROP           : Maize            CULTIVAR : FNC3056          ECOTYPE :IB0001  
 STARTING DATE  : MAR 28 2009                                                   
 PLANTING DATE  : APR 27 2009        PLANTS/m2 :  6.2     ROW SPACING :  80.cm  
 WEATHER        : CUNI   2009                                                   
 SOIL           : CCBUGA2017     TEXTURE : CL    -   Suelo Buga MADR Fase I     
 SOIL INITIAL C : DEPTH: 90cm EXTR. H2O: 83.9mm  NO3:  0.0kg/ha  NH4:  0.0kg/ha 
 WATER BALANCE  : RAINFED                                                       
 IRRIGATION     : NOT IRRIGATED                                                 
 NITROGEN BAL.  : SOIL-N & N-UPTAKE SIMULATION; NO N-FIXATION                   
 N-FERTILIZER   :      161 kg/ha IN     5 APPLICATIONS                          
 RESIDUE/MANURE : INITIAL :     0 kg/ha ;       0 kg/ha IN     0 APPLICATIONS   
 ENVIRONM. OPT. : DAYL=    0.00  SRAD=    0.00  TMAX=    0.00  TMIN=    0.00    
                  RAIN=    0.00  CO2 =    0.00  DEW =    0.00  WIND=    0.00    
 SIMULATION OPT : WATER   :Y  NITROGEN:Y  N-FIX:N  PHOSPH :N  PESTS  :N         
                  PHOTO   :C  ET      :R  INFIL:S  HYDROL :R  SOM    :G         
                  CO2 387ppm  NSWIT   :1  EVAP :S  SOIL   :2  STEMP  :D         
 MANAGEMENT OPT : PLANTING:R  IRRIG   :N  FERT :D  RESIDUE:R  HARVEST:M         
                  WEATHER :M  TILLAGE :N                                        
                                                                                
*SUMMARY OF SOIL AND GENETIC INPUT PARAMETERS                                   
                                                                                
   SOIL LOWER UPPER   SAT  EXTR  INIT   ROOT   BULK     pH    NO3    NH4    ORG 
  DEPTH LIMIT LIMIT    SW    SW    SW   DIST   DENS                          C  
   cm   cm3/cm3    cm3/cm3    cm3/cm3         g/cm3         ugN/g  ugN/g     %  
------------------------------------------------------------------------------- 
  0-  5 0.215 0.331 0.341 0.116 0.331   1.00   1.68   6.70   0.00   0.00   0.75 
  5- 15 0.215 0.331 0.341 0.116 0.331   1.00   1.68   6.70   0.00   0.00   0.75 
 15- 25 0.215 0.331 0.341 0.116 0.331   1.00   1.68   6.70   0.00   0.00   0.75 
 25- 35 0.181 0.291 0.364 0.110 0.291   0.50   1.61   7.20   0.00   0.00   0.53 
 35- 45 0.181 0.291 0.364 0.110 0.291   0.50   1.61   7.20   0.00   0.00   0.53 
 45- 67 0.096 0.169 0.404 0.073 0.169   0.27   1.51   7.00   0.00   0.00   0.05 
 67- 90 0.096 0.169 0.404 0.073 0.169   0.27   1.51   7.00   0.00   0.00   0.05 
                                                                                
TOT- 90  13.3  21.7  34.0   8.4  21.7  <--cm   -  kg/ha-->    0.0    0.0  51964 
SOIL ALBEDO    : 0.09      EVAPORATION LIMIT : 6.00         MIN. FACTOR  : 1.00 
RUNOFF CURVE # :76.00      DRAINAGE RATE     : 0.60         FERT. FACTOR : 1.00 
                                                                                
 Maize      CULTIVAR :CI0003-FNC3056            ECOTYPE :IB0001                 
 P1     : 233.00  P2     : 0.5000  P5     : 976.00                              
 G2     : 956.00  G3     :  7.500  PHINT  : 45.600                              


*SIMULATED CROP AND SOIL STATUS AT MAIN DEVELOPMENT STAGES

 RUN NO.     6     P04/27                  

        CROP GROWTH     BIOMASS         LEAF   CROP N     STRESS      STRESS                                           
   DATE  AGE STAGE        kg/ha    LAI   NUM  kg/ha  %   H2O  Nitr Phos1 Phos2  RSTG                                   
 ------  --- ----------   -----  -----  ----  ---  ---  ----  ----  ----  ----  ----                                   
 28 MAR    0 Start Sim        0   0.00   0.0    0  0.0  0.00  0.00  0.00  0.00     7
 27 APR    0 Sowing           0   0.00   0.0    0  0.0  0.00  0.00  0.00  0.00     8
 28 APR    1 Germinate        0   0.00   0.0    0  0.0  0.00  0.00  0.00  0.00     9
  3 MAY    6 Emergence       25   0.00   2.0    1  4.4  0.00  0.01  0.00  0.00     1
 16 MAY   19 End Juveni     119   0.25   7.7    4  3.3  0.00  0.00  0.00  0.00     2
 24 MAY   27 Floral Ini     464   0.78  10.9   12  2.7  0.00  0.01  0.00  0.00     3
  2 JUL   66 75% Silkin    7107   3.84  22.5  142  2.0  0.00  0.04  0.00  0.00     4
 13 JUL   77 Beg Gr Fil    9663   3.63  22.5  142  1.5  0.04  0.00  0.00  0.00     5
 25 AUG  120 End Gr Fil   12828   0.87  22.5  142  1.1  0.71  0.00  0.00  0.00     6
 28 AUG  123 Maturity     12828   0.87  22.5  142  1.1  0.12  0.00  0.00  0.00    10
 28 AUG  123 Harvest      12828   0.87  22.5  142  1.1  0.00  0.00  0.00  0.00    10


*MAIN GROWTH AND DEVELOPMENT VARIABLES

@     VARIABLE                                         SIMULATED     MEASURED
      --------                                         ---------     --------
      Anthesis day (dap)                                      66          -99
      Physiological maturity day (dap)                       123          -99
      Yield at harvest maturity (kg [dm]/ha)                4624          -99
      Number at maturity (no/m2)                            3095          -99
      Unit wt at maturity (g [dm]/unit)                   0.1494          -99
      Number at maturity (no/unit)                         499.1          -99
      Tops weight at maturity (kg [dm]/ha)                 12828          -99
      By-product produced (stalk) at maturity (kg[dm]/ha    8270          -99
      Leaf area index, maximum                              3.93          -99
      Harvest index at maturity                            0.360          -99
      Grain N at maturity (kg/ha)                             85          -99
      Tops N at maturity (kg/ha)                             142          -99
      Stem N at maturity (kg/ha)                              57          -99
      Grain N at maturity (%)                                1.8          -99
      Tops weight at anthesis (kg [dm]/ha)                  6846          -99
      Tops N at anthesis (kg/ha)                             140          -99
      Leaf number per stem at maturity                     22.52          -99
      Emergence day (dap)                                      6          -99


*ENVIRONMENTAL AND STRESS FACTORS

 |-----Development Phase------|--------------------------------------Environment--------------------------------------|-----------------Stress-----------------|
                              |---------------Average--------------|-----Cumulative-----|--------Count of days--------|          (0=Min, 1=Max Stress)         |
                         Time  Temp  Temp  Temp Solar Photop                Evapo    Pot TMIN TMIN TMAX TMAX TMAX RAIN|----Water----|---Nitrogen--|-Phosphorus-|
                         Span   Max   Min  Mean   Rad  [day]    CO2   Rain  Trans     ET   <    <    >    >    >    >   Photo         Photo         Photo
                         days    邂    邂    邂 MJ/m2     hr    ppm     mm     mm     mm  0邂  2邂 30邂 32邂 34邂  0mm  synth Growth  synth Growth  synth Growth
----------------------------------------------------------------------------------------------------------------------------------------------------------------
 Emergence-End Juvenile    13  30.9  18.5  24.7  17.5  24.00  386.9   12.6   25.4   63.3    0    0    9    1    0    5  0.000  0.000  0.002  0.005  0.000  0.000
 End Juvenil-Floral Init    8  32.1  18.7  25.4  13.7  24.00  387.1    3.5   12.5   29.5    0    0    7    3    0    2  0.000  0.000  0.000  0.001  0.000  0.000
 Floral Init-End Lf Grow   39  30.1  18.8  24.4  15.8  24.00  387.2  204.6  138.5  149.8    0    0   17    6    1   17  0.000  0.000  0.015  0.037  0.000  0.000
 End Lf Grth-Beg Grn Fil   11  29.7  18.3  24.0  16.0  24.00  387.3    2.5   40.9   41.1    0    0    3    1    0    2  0.000  0.002  0.000  0.000  0.000  0.000
 Grain Filling Phase       43  32.4  18.5  25.5  17.8  24.00  387.5   58.6   75.3  191.9    0    0   38   20    5   10  0.654  0.721  0.000  0.000  0.000  0.000


 Planting to Harvest      123  31.2  18.7  24.9  16.6  24.00  387.3  316.1  318.9  515.5    0    0   80   36    8   41  0.229  0.254  0.005  0.012  0.000  0.000
----------------------------------------------------------------------------------------------------------------------------------------------------------------


*Resource Productivity
 Growing season length: 123 days 

 Precipitation during growing season       316.1 mm[rain]
   Dry Matter Productivity                  4.06 kg[DM]/m3[rain]          =   40.6 kg[DM]/ha per mm[rain]
   Yield Productivity                       1.46 kg[grain yield]/m3[rain] =   14.6 kg[yield]/ha per mm[rain]

 Evapotranspiration during growing season  318.9 mm[ET]
   Dry Matter Productivity                  4.02 kg[DM]/m3[ET]            =   40.2 kg[DM]/ha per mm[ET]
   Yield Productivity                       1.45 kg[grain yield]/m3[ET]   =   14.5 kg[yield]/ha per mm[ET]

 Transpiration during growing season       208.0 mm[EP]
   Dry Matter Productivity                  6.17 kg[DM]/m3[EP]            =   61.7 kg[DM]/ha per mm[EP]
   Yield Productivity                       2.22 kg[grain yield]/m3[EP]   =   22.2 kg[yield]/ha per mm[EP]

 N applied during growing season            161. kg[N applied]/ha
   Dry Matter Productivity                  79.7 kg[DM]/kg[N applied]
   Yield Productivity                       28.7 kg[yield]/kg[N applied]

 N uptake during growing season              158 kg[N uptake]/ha
   Dry Matter Productivity                  81.2 kg[DM]/kg[N uptake]
   Yield Productivity                       29.3 kg[yield]/kg[N uptake]

--------------------------------------------------------------------------------------------------------------

                     Maize YIELD :     4624 kg/ha    [Dry weight] 

**************************************************************************************************************

*DSSAT Cropping System Model Ver. 4.6.1.000 -release      OCT 24, 2017; 10:51:19
                                                                                
*RUN   7        : P05/02                    MZCER046 ANBU2009    7              
 MODEL          : MZCER046 - Maize                                              
 EXPERIMENT     : ANBU2009 MZ  Analisis a침os de bajo rendimiento Buga          
 DATA PATH      : C:\DSSAT46\maize\                                             
 TREATMENT  7   : P05/02                    MZCER046                            
                                                                                
                                                                                
 CROP           : Maize            CULTIVAR : FNC3056          ECOTYPE :IB0001  
 STARTING DATE  : APR  2 2009                                                   
 PLANTING DATE  : MAY  2 2009        PLANTS/m2 :  6.2     ROW SPACING :  80.cm  
 WEATHER        : CUNI   2009                                                   
 SOIL           : CCBUGA2017     TEXTURE : CL    -   Suelo Buga MADR Fase I     
 SOIL INITIAL C : DEPTH: 90cm EXTR. H2O: 83.9mm  NO3:  0.0kg/ha  NH4:  0.0kg/ha 
 WATER BALANCE  : RAINFED                                                       
 IRRIGATION     : NOT IRRIGATED                                                 
 NITROGEN BAL.  : SOIL-N & N-UPTAKE SIMULATION; NO N-FIXATION                   
 N-FERTILIZER   :      161 kg/ha IN     5 APPLICATIONS                          
 RESIDUE/MANURE : INITIAL :     0 kg/ha ;       0 kg/ha IN     0 APPLICATIONS   
 ENVIRONM. OPT. : DAYL=    0.00  SRAD=    0.00  TMAX=    0.00  TMIN=    0.00    
                  RAIN=    0.00  CO2 =    0.00  DEW =    0.00  WIND=    0.00    
 SIMULATION OPT : WATER   :Y  NITROGEN:Y  N-FIX:N  PHOSPH :N  PESTS  :N         
                  PHOTO   :C  ET      :R  INFIL:S  HYDROL :R  SOM    :G         
                  CO2 387ppm  NSWIT   :1  EVAP :S  SOIL   :2  STEMP  :D         
 MANAGEMENT OPT : PLANTING:R  IRRIG   :N  FERT :D  RESIDUE:R  HARVEST:M         
                  WEATHER :M  TILLAGE :N                                        
                                                                                
*SUMMARY OF SOIL AND GENETIC INPUT PARAMETERS                                   
                                                                                
   SOIL LOWER UPPER   SAT  EXTR  INIT   ROOT   BULK     pH    NO3    NH4    ORG 
  DEPTH LIMIT LIMIT    SW    SW    SW   DIST   DENS                          C  
   cm   cm3/cm3    cm3/cm3    cm3/cm3         g/cm3         ugN/g  ugN/g     %  
------------------------------------------------------------------------------- 
  0-  5 0.215 0.331 0.341 0.116 0.331   1.00   1.68   6.70   0.00   0.00   0.75 
  5- 15 0.215 0.331 0.341 0.116 0.331   1.00   1.68   6.70   0.00   0.00   0.75 
 15- 25 0.215 0.331 0.341 0.116 0.331   1.00   1.68   6.70   0.00   0.00   0.75 
 25- 35 0.181 0.291 0.364 0.110 0.291   0.50   1.61   7.20   0.00   0.00   0.53 
 35- 45 0.181 0.291 0.364 0.110 0.291   0.50   1.61   7.20   0.00   0.00   0.53 
 45- 67 0.096 0.169 0.404 0.073 0.169   0.27   1.51   7.00   0.00   0.00   0.05 
 67- 90 0.096 0.169 0.404 0.073 0.169   0.27   1.51   7.00   0.00   0.00   0.05 
                                                                                
TOT- 90  13.3  21.7  34.0   8.4  21.7  <--cm   -  kg/ha-->    0.0    0.0  51964 
SOIL ALBEDO    : 0.09      EVAPORATION LIMIT : 6.00         MIN. FACTOR  : 1.00 
RUNOFF CURVE # :76.00      DRAINAGE RATE     : 0.60         FERT. FACTOR : 1.00 
                                                                                
 Maize      CULTIVAR :CI0003-FNC3056            ECOTYPE :IB0001                 
 P1     : 233.00  P2     : 0.5000  P5     : 976.00                              
 G2     : 956.00  G3     :  7.500  PHINT  : 45.600                              


*SIMULATED CROP AND SOIL STATUS AT MAIN DEVELOPMENT STAGES

 RUN NO.     7     P05/02                  

        CROP GROWTH     BIOMASS         LEAF   CROP N     STRESS      STRESS                                           
   DATE  AGE STAGE        kg/ha    LAI   NUM  kg/ha  %   H2O  Nitr Phos1 Phos2  RSTG                                   
 ------  --- ----------   -----  -----  ----  ---  ---  ----  ----  ----  ----  ----                                   
  2 APR    0 Start Sim        0   0.00   0.0    0  0.0  0.00  0.00  0.00  0.00     7
  2 MAY    0 Sowing           0   0.00   0.0    0  0.0  0.00  0.00  0.00  0.00     8
  3 MAY    1 Germinate        0   0.00   0.0    0  0.0  0.00  0.00  0.00  0.00     9
  8 MAY    6 Emergence       25   0.00   2.1    1  4.4  0.00  0.01  0.00  0.00     1
 21 MAY   19 End Juveni     129   0.27   7.8    4  3.3  0.00  0.00  0.00  0.00     2
 29 MAY   27 Floral Ini     507   0.84  10.9   18  3.6  0.00  0.02  0.00  0.00     3
  8 JUL   67 75% Silkin    7247   3.90  22.7  143  2.0  0.01  0.01  0.00  0.00     4
 18 JUL   77 Beg Gr Fil    9045   3.29  22.7  143  1.6  0.42  0.00  0.00  0.00     5
 30 AUG  120 End Gr Fil   12085   0.83  22.7  143  1.2  0.70  0.00  0.00  0.00     6
  2 SEP  123 Maturity     12085   0.83  22.7  143  1.2  0.53  0.00  0.00  0.00    10
  2 SEP  123 Harvest      12085   0.83  22.7  143  1.2  0.00  0.00  0.00  0.00    10


*MAIN GROWTH AND DEVELOPMENT VARIABLES

@     VARIABLE                                         SIMULATED     MEASURED
      --------                                         ---------     --------
      Anthesis day (dap)                                      67          -99
      Physiological maturity day (dap)                       123          -99
      Yield at harvest maturity (kg [dm]/ha)                4591          -99
      Number at maturity (no/m2)                            2632          -99
      Unit wt at maturity (g [dm]/unit)                   0.1744          -99
      Number at maturity (no/unit)                         424.6          -99
      Tops weight at maturity (kg [dm]/ha)                 12085          -99
      By-product produced (stalk) at maturity (kg[dm]/ha    7560          -99
      Leaf area index, maximum                              4.03          -99
      Harvest index at maturity                            0.380          -99
      Grain N at maturity (kg/ha)                             84          -99
      Tops N at maturity (kg/ha)                             143          -99
      Stem N at maturity (kg/ha)                              59          -99
      Grain N at maturity (%)                                1.8          -99
      Tops weight at anthesis (kg [dm]/ha)                  7063          -99
      Tops N at anthesis (kg/ha)                             143          -99
      Leaf number per stem at maturity                     22.73          -99
      Emergence day (dap)                                      6          -99


*ENVIRONMENTAL AND STRESS FACTORS

 |-----Development Phase------|--------------------------------------Environment--------------------------------------|-----------------Stress-----------------|
                              |---------------Average--------------|-----Cumulative-----|--------Count of days--------|          (0=Min, 1=Max Stress)         |
                         Time  Temp  Temp  Temp Solar Photop                Evapo    Pot TMIN TMIN TMAX TMAX TMAX RAIN|----Water----|---Nitrogen--|-Phosphorus-|
                         Span   Max   Min  Mean   Rad  [day]    CO2   Rain  Trans     ET   <    <    >    >    >    >   Photo         Photo         Photo
                         days    邂    邂    邂 MJ/m2     hr    ppm     mm     mm     mm  0邂  2邂 30邂 32邂 34邂  0mm  synth Growth  synth Growth  synth Growth
----------------------------------------------------------------------------------------------------------------------------------------------------------------
 Emergence-End Juvenile    13  31.7  18.4  25.0  16.8  24.00  387.0    5.3   14.3   60.8    0    0   11    2    0    4  0.000  0.000  0.002  0.005  0.000  0.000
 End Juvenil-Floral Init    8  31.8  19.0  25.4  15.2  24.00  387.1   24.4   14.6   32.5    0    0    6    4    0    3  0.000  0.000  0.007  0.018  0.000  0.000
 Floral Init-End Lf Grow   40  29.8  18.7  24.2  15.6  24.00  387.2  185.7  144.7  150.6    0    0   13    4    1   17  0.000  0.012  0.003  0.007  0.000  0.000
 End Lf Grth-Beg Grn Fil   10  31.3  18.0  24.6  17.2  24.00  387.3    0.0   32.0   40.8    0    0    8    3    0    0  0.225  0.339  0.000  0.000  0.000  0.000
 Grain Filling Phase       43  32.5  18.7  25.6  17.8  23.98  387.5   61.6   73.5  193.7    0    0   38   22    6   11  0.644  0.697  0.000  0.000  0.000  0.000


 Planting to Harvest      123  31.3  18.6  25.0  16.7  23.92  387.3  296.3  304.9  521.5    0    0   83   37    8   40  0.255  0.288  0.002  0.004  0.000  0.000
----------------------------------------------------------------------------------------------------------------------------------------------------------------


*Resource Productivity
 Growing season length: 123 days 

 Precipitation during growing season       296.3 mm[rain]
   Dry Matter Productivity                  4.08 kg[DM]/m3[rain]          =   40.8 kg[DM]/ha per mm[rain]
   Yield Productivity                       1.55 kg[grain yield]/m3[rain] =   15.5 kg[yield]/ha per mm[rain]

 Evapotranspiration during growing season  304.9 mm[ET]
   Dry Matter Productivity                  3.96 kg[DM]/m3[ET]            =   39.6 kg[DM]/ha per mm[ET]
   Yield Productivity                       1.51 kg[grain yield]/m3[ET]   =   15.1 kg[yield]/ha per mm[ET]

 Transpiration during growing season       196.3 mm[EP]
   Dry Matter Productivity                  6.16 kg[DM]/m3[EP]            =   61.6 kg[DM]/ha per mm[EP]
   Yield Productivity                       2.34 kg[grain yield]/m3[EP]   =   23.4 kg[yield]/ha per mm[EP]

 N applied during growing season            161. kg[N applied]/ha
   Dry Matter Productivity                  75.1 kg[DM]/kg[N applied]
   Yield Productivity                       28.5 kg[yield]/kg[N applied]

 N uptake during growing season              160 kg[N uptake]/ha
   Dry Matter Productivity                  75.5 kg[DM]/kg[N uptake]
   Yield Productivity                       28.7 kg[yield]/kg[N uptake]

--------------------------------------------------------------------------------------------------------------

                     Maize YIELD :     4591 kg/ha    [Dry weight] 

**************************************************************************************************************

*DSSAT Cropping System Model Ver. 4.6.1.000 -release      OCT 24, 2017; 10:51:19
                                                                                
*RUN   8        : P05/07                    MZCER046 ANBU2009    8              
 MODEL          : MZCER046 - Maize                                              
 EXPERIMENT     : ANBU2009 MZ  Analisis a침os de bajo rendimiento Buga          
 DATA PATH      : C:\DSSAT46\maize\                                             
 TREATMENT  8   : P05/07                    MZCER046                            
                                                                                
                                                                                
 CROP           : Maize            CULTIVAR : FNC3056          ECOTYPE :IB0001  
 STARTING DATE  : APR  7 2009                                                   
 PLANTING DATE  : MAY  7 2009        PLANTS/m2 :  6.2     ROW SPACING :  80.cm  
 WEATHER        : CUNI   2009                                                   
 SOIL           : CCBUGA2017     TEXTURE : CL    -   Suelo Buga MADR Fase I     
 SOIL INITIAL C : DEPTH: 90cm EXTR. H2O: 83.9mm  NO3:  0.0kg/ha  NH4:  0.0kg/ha 
 WATER BALANCE  : RAINFED                                                       
 IRRIGATION     : NOT IRRIGATED                                                 
 NITROGEN BAL.  : SOIL-N & N-UPTAKE SIMULATION; NO N-FIXATION                   
 N-FERTILIZER   :      161 kg/ha IN     5 APPLICATIONS                          
 RESIDUE/MANURE : INITIAL :     0 kg/ha ;       0 kg/ha IN     0 APPLICATIONS   
 ENVIRONM. OPT. : DAYL=    0.00  SRAD=    0.00  TMAX=    0.00  TMIN=    0.00    
                  RAIN=    0.00  CO2 =    0.00  DEW =    0.00  WIND=    0.00    
 SIMULATION OPT : WATER   :Y  NITROGEN:Y  N-FIX:N  PHOSPH :N  PESTS  :N         
                  PHOTO   :C  ET      :R  INFIL:S  HYDROL :R  SOM    :G         
                  CO2 387ppm  NSWIT   :1  EVAP :S  SOIL   :2  STEMP  :D         
 MANAGEMENT OPT : PLANTING:R  IRRIG   :N  FERT :D  RESIDUE:R  HARVEST:M         
                  WEATHER :M  TILLAGE :N                                        
                                                                                
*SUMMARY OF SOIL AND GENETIC INPUT PARAMETERS                                   
                                                                                
   SOIL LOWER UPPER   SAT  EXTR  INIT   ROOT   BULK     pH    NO3    NH4    ORG 
  DEPTH LIMIT LIMIT    SW    SW    SW   DIST   DENS                          C  
   cm   cm3/cm3    cm3/cm3    cm3/cm3         g/cm3         ugN/g  ugN/g     %  
------------------------------------------------------------------------------- 
  0-  5 0.215 0.331 0.341 0.116 0.331   1.00   1.68   6.70   0.00   0.00   0.75 
  5- 15 0.215 0.331 0.341 0.116 0.331   1.00   1.68   6.70   0.00   0.00   0.75 
 15- 25 0.215 0.331 0.341 0.116 0.331   1.00   1.68   6.70   0.00   0.00   0.75 
 25- 35 0.181 0.291 0.364 0.110 0.291   0.50   1.61   7.20   0.00   0.00   0.53 
 35- 45 0.181 0.291 0.364 0.110 0.291   0.50   1.61   7.20   0.00   0.00   0.53 
 45- 67 0.096 0.169 0.404 0.073 0.169   0.27   1.51   7.00   0.00   0.00   0.05 
 67- 90 0.096 0.169 0.404 0.073 0.169   0.27   1.51   7.00   0.00   0.00   0.05 
                                                                                
TOT- 90  13.3  21.7  34.0   8.4  21.7  <--cm   -  kg/ha-->    0.0    0.0  51964 
SOIL ALBEDO    : 0.09      EVAPORATION LIMIT : 6.00         MIN. FACTOR  : 1.00 
RUNOFF CURVE # :76.00      DRAINAGE RATE     : 0.60         FERT. FACTOR : 1.00 
                                                                                
 Maize      CULTIVAR :CI0003-FNC3056            ECOTYPE :IB0001                 
 P1     : 233.00  P2     : 0.5000  P5     : 976.00                              
 G2     : 956.00  G3     :  7.500  PHINT  : 45.600                              


*SIMULATED CROP AND SOIL STATUS AT MAIN DEVELOPMENT STAGES

 RUN NO.     8     P05/07                  

        CROP GROWTH     BIOMASS         LEAF   CROP N     STRESS      STRESS                                           
   DATE  AGE STAGE        kg/ha    LAI   NUM  kg/ha  %   H2O  Nitr Phos1 Phos2  RSTG                                   
 ------  --- ----------   -----  -----  ----  ---  ---  ----  ----  ----  ----  ----                                   
  7 APR    0 Start Sim        0   0.00   0.0    0  0.0  0.00  0.00  0.00  0.00     7
  7 MAY    0 Sowing           0   0.00   0.0    0  0.0  0.00  0.00  0.00  0.00     8
  8 MAY    1 Germinate        0   0.00   0.0    0  0.0  0.00  0.00  0.00  0.00     9
 13 MAY    6 Emergence       25   0.00   2.1    1  4.4  0.00  0.01  0.00  0.00     1
 26 MAY   19 End Juveni     141   0.29   7.8    5  3.3  0.01  0.00  0.00  0.00     2
  3 JUN   27 Floral Ini     464   0.78  11.0   17  3.6  0.00  0.00  0.00  0.00     3
 14 JUL   68 75% Silkin    7559   3.92  23.0  149  2.0  0.05  0.01  0.00  0.00     4
 23 JUL   77 Beg Gr Fil    8472   3.08  23.0  150  1.8  0.65  0.00  0.00  0.00     5
  4 SEP  120 End Gr Fil   11141   0.75  23.0  150  1.3  0.71  0.00  0.00  0.00     6
  7 SEP  123 Maturity     11141   0.75  23.0  150  1.3  0.97  0.00  0.00  0.00    10
[...]
 NITROGEN BAL.  : SOIL-N & N-UPTAKE SIMULATION; NO N-FIXATION                   
 N-FERTILIZER   :      161 kg/ha IN     5 APPLICATIONS                          
 RESIDUE/MANURE : INITIAL :     0 kg/ha ;       0 kg/ha IN     0 APPLICATIONS   
 ENVIRONM. OPT. : DAYL=    0.00  SRAD=    0.00  TMAX=    0.00  TMIN=    0.00    
                  RAIN=    0.00  CO2 =    0.00  DEW =    0.00  WIND=    0.00    
 SIMULATION OPT : WATER   :Y  NITROGEN:Y  N-FIX:N  PHOSPH :N  PESTS  :N         
                  PHOTO   :C  ET      :R  INFIL:S  HYDROL :R  SOM    :G         
                  CO2 388ppm  NSWIT   :1  EVAP :S  SOIL   :2  STEMP  :D         
 MANAGEMENT OPT : PLANTING:R  IRRIG   :N  FERT :D  RESIDUE:R  HARVEST:M         
                  WEATHER :M  TILLAGE :N                                        
                                                                                
*SUMMARY OF SOIL AND GENETIC INPUT PARAMETERS                                   
                                                                                
   SOIL LOWER UPPER   SAT  EXTR  INIT   ROOT   BULK     pH    NO3    NH4    ORG 
  DEPTH LIMIT LIMIT    SW    SW    SW   DIST   DENS                          C  
   cm   cm3/cm3    cm3/cm3    cm3/cm3         g/cm3         ugN/g  ugN/g     %  
------------------------------------------------------------------------------- 
  0-  5 0.215 0.331 0.341 0.116 0.331   1.00   1.68   6.70   0.00   0.00   0.75 
  5- 15 0.215 0.331 0.341 0.116 0.331   1.00   1.68   6.70   0.00   0.00   0.75 
 15- 25 0.215 0.331 0.341 0.116 0.331   1.00   1.68   6.70   0.00   0.00   0.75 
 25- 35 0.181 0.291 0.364 0.110 0.291   0.50   1.61   7.20   0.00   0.00   0.53 
 35- 45 0.181 0.291 0.364 0.110 0.291   0.50   1.61   7.20   0.00   0.00   0.53 
 45- 67 0.096 0.169 0.404 0.073 0.169   0.27   1.51   7.00   0.00   0.00   0.05 
 67- 90 0.096 0.169 0.404 0.073 0.169   0.27   1.51   7.00   0.00   0.00   0.05 
                                                                                
TOT- 90  13.3  21.7  34.0   8.4  21.7  <--cm   -  kg/ha-->    0.0    0.0  51964 
SOIL ALBEDO    : 0.09      EVAPORATION LIMIT : 6.00         MIN. FACTOR  : 1.00 
RUNOFF CURVE # :76.00      DRAINAGE RATE     : 0.60         FERT. FACTOR : 1.00 
                                                                                
 Maize      CULTIVAR :CI0003-FNC3056            ECOTYPE :IB0001                 
 P1     : 233.00  P2     : 0.5000  P5     : 976.00                              
 G2     : 956.00  G3     :  7.500  PHINT  : 45.600                              


*SIMULATED CROP AND SOIL STATUS AT MAIN DEVELOPMENT STAGES

 RUN NO.    35     P12/14                  

        CROP GROWTH     BIOMASS         LEAF   CROP N     STRESS      STRESS                                           
   DATE  AGE STAGE        kg/ha    LAI   NUM  kg/ha  %   H2O  Nitr Phos1 Phos2  RSTG                                   
 ------  --- ----------   -----  -----  ----  ---  ---  ----  ----  ----  ----  ----                                   
 14 NOV    0 Start Sim        0   0.00   0.0    0  0.0  0.00  0.00  0.00  0.00     7
 14 DEC    0 Sowing           0   0.00   0.0    0  0.0  0.00  0.00  0.00  0.00     8
 15 DEC    1 Germinate        0   0.00   0.0    0  0.0  0.00  0.00  0.00  0.00     9
 20 DEC    6 Emergence       25   0.00   2.1    1  4.4  0.00  0.01  0.00  0.00     1
  2 JAN   19 End Juveni      94   0.20   7.7    3  3.4  0.00  0.00  0.00  0.00     2
  6 JAN   23 Floral Ini     226   0.43   9.3    8  3.6  0.00  0.00  0.00  0.00     3
  6 FEB   54 75% Silkin    1993   0.78  19.2   14  0.7  0.37  0.62  0.00  0.00     4
 16 FEB   64 Beg Gr Fil    2100   0.53  19.2   43  2.0  0.82  0.25  0.00  0.00     5
 28 MAR  104 End Gr Fil    2966   0.18  19.2   43  1.4  0.62  0.00  0.00  0.00     6
 30 MAR  106 Maturity      2966   0.18  19.2   43  1.4  0.00  0.00  0.00  0.00    10
 30 MAR  106 Harvest       2966   0.18  19.2   43  1.4  0.00  0.00  0.00  0.00    10


*MAIN GROWTH AND DEVELOPMENT VARIABLES

@     VARIABLE                                         SIMULATED     MEASURED
      --------                                         ---------     --------
      Anthesis day (dap)                                      54          -99
      Physiological maturity day (dap)                       106          -99
      Yield at harvest maturity (kg [dm]/ha)                1082          -99
      Number at maturity (no/m2)                             545          -99
      Unit wt at maturity (g [dm]/unit)                   0.1985          -99
      Number at maturity (no/unit)                          99.2          -99
      Tops weight at maturity (kg [dm]/ha)                  2966          -99
      By-product produced (stalk) at maturity (kg[dm]/ha    1913          -99
      Leaf area index, maximum                              1.13          -99
      Harvest index at maturity                            0.365          -99
      Grain N at maturity (kg/ha)                             20          -99
      Tops N at maturity (kg/ha)                              43          -99
      Stem N at maturity (kg/ha)                              20          -99
      Grain N at maturity (%)                                1.8          -99
      Tops weight at anthesis (kg [dm]/ha)                  1981          -99
      Tops N at anthesis (kg/ha)                              14          -99
      Leaf number per stem at maturity                     19.23          -99
      Emergence day (dap)                                      6          -99


*ENVIRONMENTAL AND STRESS FACTORS

 |-----Development Phase------|--------------------------------------Environment--------------------------------------|-----------------Stress-----------------|
                              |---------------Average--------------|-----Cumulative-----|--------Count of days--------|          (0=Min, 1=Max Stress)         |
                         Time  Temp  Temp  Temp Solar Photop                Evapo    Pot TMIN TMIN TMAX TMAX TMAX RAIN|----Water----|---Nitrogen--|-Phosphorus-|
                         Span   Max   Min  Mean   Rad  [day]    CO2   Rain  Trans     ET   <    <    >    >    >    >   Photo         Photo         Photo
                         days    邂    邂    邂 MJ/m2     hr    ppm     mm     mm     mm  0邂  2邂 30邂 32邂 34邂  0mm  synth Growth  synth Growth  synth Growth
----------------------------------------------------------------------------------------------------------------------------------------------------------------
 Emergence-End Juvenile    13  30.8  19.0  24.9  16.2   0.00  388.5   30.6   36.6   58.8    0    0    7    3    0    4  0.000  0.000  0.002  0.005  0.000  0.000
 End Juvenil-Floral Init    4  31.8  18.0  24.9  18.1   0.00  388.5    0.0    6.3   19.7    0    0    3    2    0    0  0.000  0.000  0.001  0.002  0.000  0.000
 Floral Init-End Lf Grow   31  33.5  18.8  26.2  18.4   0.00  388.7    2.8   61.5  151.5    0    0   29   21   12    4  0.259  0.353  0.387  0.596  0.000  0.000
 End Lf Grth-Beg Grn Fil   10  32.4  19.9  26.2  17.7   0.00  388.8   13.2   12.6   47.5    0    0    8    7    2    2  0.704  0.803  0.244  0.336  0.000  0.000
 Grain Filling Phase       40  33.6  20.3  27.0  16.6   6.04  389.1   64.9   53.8  188.0    0    0   38   33   15   13  0.555  0.636  0.000  0.000  0.000  0.000


 Planting to Harvest      106  32.9  19.6  26.2  17.0   2.54  388.8  130.3  182.9  497.6    0    0   90   71   29   26  0.352  0.419  0.136  0.207  0.000  0.000
----------------------------------------------------------------------------------------------------------------------------------------------------------------


*Resource Productivity
 Growing season length: 106 days 

 Precipitation during growing season       130.3 mm[rain]
   Dry Matter Productivity                  2.28 kg[DM]/m3[rain]          =   22.8 kg[DM]/ha per mm[rain]
   Yield Productivity                       0.83 kg[grain yield]/m3[rain] =    8.3 kg[yield]/ha per mm[rain]

 Evapotranspiration during growing season  182.9 mm[ET]
   Dry Matter Productivity                  1.62 kg[DM]/m3[ET]            =   16.2 kg[DM]/ha per mm[ET]
   Yield Productivity                       0.59 kg[grain yield]/m3[ET]   =    5.9 kg[yield]/ha per mm[ET]

 Transpiration during growing season        73.3 mm[EP]
   Dry Matter Productivity                  4.04 kg[DM]/m3[EP]            =   40.4 kg[DM]/ha per mm[EP]
   Yield Productivity                       1.48 kg[grain yield]/m3[EP]   =   14.8 kg[yield]/ha per mm[EP]

 N applied during growing season            161. kg[N applied]/ha
   Dry Matter Productivity                  18.4 kg[DM]/kg[N applied]
   Yield Productivity                        6.7 kg[yield]/kg[N applied]

 N uptake during growing season               48 kg[N uptake]/ha
   Dry Matter Productivity                  61.8 kg[DM]/kg[N uptake]
   Yield Productivity                       22.5 kg[yield]/kg[N uptake]

--------------------------------------------------------------------------------------------------------------

                     Maize YIELD :     1082 kg/ha    [Dry weight] 

**************************************************************************************************************

*DSSAT Cropping System Model Ver. 4.6.1.000 -release      OCT 24, 2017; 10:51:37
                                                                                
*RUN  36        : P12/19                    MZCER046 ANBU2009   36              
 MODEL          : MZCER046 - Maize                                              
 EXPERIMENT     : ANBU2009 MZ  Analisis a침os de bajo rendimiento Buga          
 DATA PATH      : C:\DSSAT46\maize\                                             
 TREATMENT 36   : P12/19                    MZCER046                            
                                                                                
                                                                                
 CROP           : Maize            CULTIVAR : FNC3056          ECOTYPE :IB0001  
 STARTING DATE  : NOV 19 2009                                                   
 PLANTING DATE  : DEC 19 2009        PLANTS/m2 :  6.2     ROW SPACING :  80.cm  
 WEATHER        : CUNI   2009                                                   
 SOIL           : CCBUGA2017     TEXTURE : CL    -   Suelo Buga MADR Fase I     
 SOIL INITIAL C : DEPTH: 90cm EXTR. H2O: 83.9mm  NO3:  0.0kg/ha  NH4:  0.0kg/ha 
 WATER BALANCE  : RAINFED                                                       
 IRRIGATION     : NOT IRRIGATED                                                 
 NITROGEN BAL.  : SOIL-N & N-UPTAKE SIMULATION; NO N-FIXATION                   
 N-FERTILIZER   :      161 kg/ha IN     5 APPLICATIONS                          
 RESIDUE/MANURE : INITIAL :     0 kg/ha ;       0 kg/ha IN     0 APPLICATIONS   
 ENVIRONM. OPT. : DAYL=    0.00  SRAD=    0.00  TMAX=    0.00  TMIN=    0.00    
                  RAIN=    0.00  CO2 =    0.00  DEW =    0.00  WIND=    0.00    
 SIMULATION OPT : WATER   :Y  NITROGEN:Y  N-FIX:N  PHOSPH :N  PESTS  :N         
                  PHOTO   :C  ET      :R  INFIL:S  HYDROL :R  SOM    :G         
                  CO2 388ppm  NSWIT   :1  EVAP :S  SOIL   :2  STEMP  :D         
 MANAGEMENT OPT : PLANTING:R  IRRIG   :N  FERT :D  RESIDUE:R  HARVEST:M         
                  WEATHER :M  TILLAGE :N                                        
                                                                                
*SUMMARY OF SOIL AND GENETIC INPUT PARAMETERS                                   
                                                                                
   SOIL LOWER UPPER   SAT  EXTR  INIT   ROOT   BULK     pH    NO3    NH4    ORG 
  DEPTH LIMIT LIMIT    SW    SW    SW   DIST   DENS                          C  
   cm   cm3/cm3    cm3/cm3    cm3/cm3         g/cm3         ugN/g  ugN/g     %  
------------------------------------------------------------------------------- 
  0-  5 0.215 0.331 0.341 0.116 0.331   1.00   1.68   6.70   0.00   0.00   0.75 
  5- 15 0.215 0.331 0.341 0.116 0.331   1.00   1.68   6.70   0.00   0.00   0.75 
 15- 25 0.215 0.331 0.341 0.116 0.331   1.00   1.68   6.70   0.00   0.00   0.75 
 25- 35 0.181 0.291 0.364 0.110 0.291   0.50   1.61   7.20   0.00   0.00   0.53 
 35- 45 0.181 0.291 0.364 0.110 0.291   0.50   1.61   7.20   0.00   0.00   0.53 
 45- 67 0.096 0.169 0.404 0.073 0.169   0.27   1.51   7.00   0.00   0.00   0.05 
 67- 90 0.096 0.169 0.404 0.073 0.169   0.27   1.51   7.00   0.00   0.00   0.05 
                                                                                
TOT- 90  13.3  21.7  34.0   8.4  21.7  <--cm   -  kg/ha-->    0.0    0.0  51964 
SOIL ALBEDO    : 0.09      EVAPORATION LIMIT : 6.00         MIN. FACTOR  : 1.00 
RUNOFF CURVE # :76.00      DRAINAGE RATE     : 0.60         FERT. FACTOR : 1.00 
                                                                                
 Maize      CULTIVAR :CI0003-FNC3056            ECOTYPE :IB0001                 
 P1     : 233.00  P2     : 0.5000  P5     : 976.00                              
 G2     : 956.00  G3     :  7.500  PHINT  : 45.600                              


*SIMULATED CROP AND SOIL STATUS AT MAIN DEVELOPMENT STAGES

 RUN NO.    36     P12/19                  

        CROP GROWTH     BIOMASS         LEAF   CROP N     STRESS      STRESS                                           
   DATE  AGE STAGE        kg/ha    LAI   NUM  kg/ha  %   H2O  Nitr Phos1 Phos2  RSTG                                   
 ------  --- ----------   -----  -----  ----  ---  ---  ----  ----  ----  ----  ----                                   
 19 NOV    0 Start Sim        0   0.00   0.0    0  0.0  0.00  0.00  0.00  0.00     7
 19 DEC    0 Sowing           0   0.00   0.0    0  0.0  0.00  0.00  0.00  0.00     8
 20 DEC    1 Germinate        0   0.00   0.0    0  0.0  0.00  0.00  0.00  0.00     9
 25 DEC    6 Emergence       25   0.00   2.1    1  4.4  0.00  0.01  0.00  0.00     1
  7 JAN   19 End Juveni     112   0.24   7.8    4  3.2  0.00  0.00  0.00  0.00     2
 11 JAN   23 Floral Ini     266   0.50   9.4    9  3.2  0.00  0.00  0.00  0.00     3
 12 FEB   55 75% Silkin    1965   0.73  19.9   44  2.2  0.43  0.58  0.00  0.00     4
 21 FEB   64 Beg Gr Fil    1975   0.51  19.9   44  2.2  0.85  0.00  0.00  0.00     5
  2 APR  104 End Gr Fil    2948   0.20  19.9   44  1.5  0.52  0.00  0.00  0.00     6
  5 APR  107 Maturity      2948   0.20  19.9   44  1.5  0.00  0.00  0.00  0.00    10
  5 APR  107 Harvest       2948   0.20  19.9   44  1.5  0.00  0.00  0.00  0.00    10


*MAIN GROWTH AND DEVELOPMENT VARIABLES

@     VARIABLE                                         SIMULATED     MEASURED
      --------                                         ---------     --------
      Anthesis day (dap)                                      55          -99
      Physiological maturity day (dap)                       107          -99
      Yield at harvest maturity (kg [dm]/ha)                 940          -99
      Number at maturity (no/m2)                             443          -99
      Unit wt at maturity (g [dm]/unit)                   0.2122          -99
      Number at maturity (no/unit)                          84.9          -99
      Tops weight at maturity (kg [dm]/ha)                  2948          -99
      By-product produced (stalk) at maturity (kg[dm]/ha    2037          -99
      Leaf area index, maximum                              1.07          -99
      Harvest index at maturity                            0.319          -99
      Grain N at maturity (kg/ha)                             17          -99
      Tops N at maturity (kg/ha)                              44          -99
      Stem N at maturity (kg/ha)                              24          -99
      Grain N at maturity (%)                                1.8          -99
      Tops weight at anthesis (kg [dm]/ha)                  1951          -99
      Tops N at anthesis (kg/ha)                              44          -99
      Leaf number per stem at maturity                     19.88          -99
      Emergence day (dap)                                      6          -99


*ENVIRONMENTAL AND STRESS FACTORS

 |-----Development Phase------|--------------------------------------Environment--------------------------------------|-----------------Stress-----------------|
                              |---------------Average--------------|-----Cumulative-----|--------Count of days--------|          (0=Min, 1=Max Stress)         |
                         Time  Temp  Temp  Temp Solar Photop                Evapo    Pot TMIN TMIN TMAX TMAX TMAX RAIN|----Water----|---Nitrogen--|-Phosphorus-|
                         Span   Max   Min  Mean   Rad  [day]    CO2   Rain  Trans     ET   <    <    >    >    >    >   Photo         Photo         Photo
                         days    邂    邂    邂 MJ/m2     hr    ppm     mm     mm     mm  0邂  2邂 30邂 32邂 34邂  0mm  synth Growth  synth Growth  synth Growth
----------------------------------------------------------------------------------------------------------------------------------------------------------------
 Emergence-End Juvenile    13  31.3  18.7  25.0  17.1   0.00  388.5   21.6   26.8   62.1    0    0    9    4    0    3  0.000  0.000  0.002  0.004  0.000  0.000
 End Juvenil-Floral Init    4  32.6  19.1  25.9  18.0   0.00  388.5    1.4    5.7   19.7    0    0    4    2    0    2  0.000  0.000  0.001  0.003  0.000  0.000
 Floral Init-End Lf Grow   32  33.3  19.0  26.1  18.2   0.00  388.7   14.6   60.7  154.5    0    0   28   22   13    4  0.294  0.400  0.377  0.585  0.000  0.000
 End Lf Grth-Beg Grn Fil    9  33.9  20.1  27.0  16.5   0.00  388.9    4.2   11.3   40.9    0    0    9    9    2    1  0.777  0.852  0.000  0.000  0.000  0.000
 Grain Filling Phase       40  33.6  20.3  26.9  16.7   7.87  389.1   82.2   58.0  188.4    0    0   38   33   14   13  0.473  0.545  0.000  0.000  0.000  0.000


 Planting to Harvest      107  33.0  19.6  26.3  17.1   3.40  388.9  143.0  188.4  505.1    0    0   93   72   29   25  0.330  0.395  0.113  0.176  0.000  0.000
----------------------------------------------------------------------------------------------------------------------------------------------------------------


*Resource Productivity
 Growing season length: 107 days 

 Precipitation during growing season       143.0 mm[rain]
   Dry Matter Productivity                  2.06 kg[DM]/m3[rain]          =   20.6 kg[DM]/ha per mm[rain]
   Yield Productivity                       0.66 kg[grain yield]/m3[rain] =    6.6 kg[yield]/ha per mm[rain]

 Evapotranspiration during growing season  188.4 mm[ET]
   Dry Matter Productivity                  1.56 kg[DM]/m3[ET]            =   15.6 kg[DM]/ha per mm[ET]
   Yield Productivity                       0.50 kg[grain yield]/m3[ET]   =    5.0 kg[yield]/ha per mm[ET]

 Transpiration during growing season        74.4 mm[EP]
   Dry Matter Productivity                  3.96 kg[DM]/m3[EP]            =   39.6 kg[DM]/ha per mm[EP]
   Yield Productivity                       1.26 kg[grain yield]/m3[EP]   =   12.6 kg[yield]/ha per mm[EP]

 N applied during growing season            161. kg[N applied]/ha
   Dry Matter Productivity                  18.3 kg[DM]/kg[N applied]
   Yield Productivity                        5.8 kg[yield]/kg[N applied]

 N uptake during growing season               49 kg[N uptake]/ha
   Dry Matter Productivity                  60.2 kg[DM]/kg[N uptake]
   Yield Productivity                       19.2 kg[yield]/kg[N uptake]

--------------------------------------------------------------------------------------------------------------

                     Maize YIELD :      940 kg/ha    [Dry weight] 

**************************************************************************************************************
