*SIMULATION OVERVIEW FILE

*DSSAT Cropping System Model Ver. 4.6.1.000 -release      OCT 02, 2017; 13:16:25
                                                                                
*RUN   1        : P04/02                    MZCER046 ANBU1982    1              
 MODEL          : MZCER046 - Maize                                              
 EXPERIMENT     : ANBU1982 MZ  Analisis a침os de bajo rendimiento Buga          
 DATA PATH      : C:\DSSAT46\maize\                                             
 TREATMENT  1   : P04/02                    MZCER046                            
                                                                                
                                                                                
 CROP           : Maize            CULTIVAR : DK234            ECOTYPE :IB0001  
 STARTING DATE  : MAR  3 1982                                                   
 PLANTING DATE  : APR  2 1982        PLANTS/m2 :  6.2     ROW SPACING :  80.cm  
 WEATHER        : CUNI   1982                                                   
 SOIL           : CCBUGA2017     TEXTURE : CL    -   Suelo Buga MADR Fase I     
 SOIL INITIAL C : DEPTH: 90cm EXTR. H2O: 83.9mm  NO3:151.4kg/ha  NH4: 62.4kg/ha 
 WATER BALANCE  : RAINFED                                                       
 IRRIGATION     : NOT IRRIGATED                                                 
 NITROGEN BAL.  : SOIL-N & N-UPTAKE SIMULATION; NO N-FIXATION                   
 N-FERTILIZER   :      161 kg/ha IN     5 APPLICATIONS                          
 RESIDUE/MANURE : INITIAL :     0 kg/ha ;       0 kg/ha IN     0 APPLICATIONS   
 ENVIRONM. OPT. : DAYL=    0.00  SRAD=    0.00  TMAX=    0.00  TMIN=    0.00    
                  RAIN=    0.00  CO2 =    0.00  DEW =    0.00  WIND=    0.00    
 SIMULATION OPT : WATER   :Y  NITROGEN:Y  N-FIX:N  PHOSPH :N  PESTS  :N         
                  PHOTO   :C  ET      :R  INFIL:S  HYDROL :R  SOM    :G         
                  CO2 341ppm  NSWIT   :1  EVAP :S  SOIL   :2  STEMP  :D         
 MANAGEMENT OPT : PLANTING:R  IRRIG   :N  FERT :D  RESIDUE:R  HARVEST:M         
                  WEATHER :M  TILLAGE :N                                        
                                                                                
*SUMMARY OF SOIL AND GENETIC INPUT PARAMETERS                                   
                                                                                
   SOIL LOWER UPPER   SAT  EXTR  INIT   ROOT   BULK     pH    NO3    NH4    ORG 
  DEPTH LIMIT LIMIT    SW    SW    SW   DIST   DENS                          C  
   cm   cm3/cm3    cm3/cm3    cm3/cm3         g/cm3         ugN/g  ugN/g     %  
------------------------------------------------------------------------------- 
  0-  5 0.215 0.331 0.341 0.116 0.319   1.00   1.68   6.70  11.90   4.21   0.75 
  5- 15 0.215 0.331 0.341 0.116 0.319   1.00   1.68   6.70  11.90   4.21   0.75 
 15- 25 0.215 0.331 0.341 0.116 0.319   1.00   1.68   6.70  11.90   4.21   0.75 
 25- 35 0.181 0.291 0.364 0.110 0.331   0.50   1.61   7.20  12.15   4.32   0.53 
 35- 45 0.181 0.291 0.364 0.110 0.344   0.50   1.61   7.20  12.40   4.44   0.53 
 45- 67 0.096 0.169 0.404 0.073 0.290   0.27   1.51   7.00  10.67   4.47   0.05 
 67- 90 0.096 0.169 0.404 0.073 0.195   0.27   1.51   7.00   7.63   4.53   0.05 
                                                                                
TOT- 90  13.3  21.7  34.0   8.4  25.6  <--cm   -  kg/ha-->  151.4   62.4  51964 
SOIL ALBEDO    : 0.09      EVAPORATION LIMIT : 6.00         MIN. FACTOR  : 1.00 
RUNOFF CURVE # :76.00      DRAINAGE RATE     : 0.60         FERT. FACTOR : 1.00 
                                                                                
 Maize      CULTIVAR :CI0002-DK234              ECOTYPE :IB0001                 
 P1     : 300.00  P2     : 0.4000  P5     :1075.00                              
 G2     : 890.00  G3     :  7.750  PHINT  : 40.000                              


*SIMULATED CROP AND SOIL STATUS AT MAIN DEVELOPMENT STAGES

 RUN NO.     1     P04/02                  

        CROP GROWTH     BIOMASS         LEAF   CROP N     STRESS      STRESS                                           
   DATE  AGE STAGE        kg/ha    LAI   NUM  kg/ha  %   H2O  Nitr Phos1 Phos2  RSTG                                   
 ------  --- ----------   -----  -----  ----  ---  ---  ----  ----  ----  ----  ----                                   
  3 MAR    0 Start Sim        0   0.00   0.0    0  0.0  0.00  0.00  0.00  0.00     7
  2 APR    0 Sowing           0   0.00   0.0    0  0.0  0.00  0.00  0.00  0.00     8
  3 APR    1 Germinate        0   0.00   0.0    0  0.0  0.00  0.00  0.00  0.00     9
  8 APR    6 Emergence       25   0.00   2.1    1  4.4  0.00  0.01  0.00  0.00     1
 25 APR   23 End Juveni     233   0.45  10.1    8  3.3  0.01  0.00  0.00  0.00     2
  2 MAY   30 Floral Ini     715   1.11  13.0   26  3.6  0.00  0.00  0.00  0.00     3
 10 JUN   69 75% Silkin    7384   3.94  26.7  146  2.0  0.00  0.00  0.00  0.00     4
 20 JUN   79 Beg Gr Fil    9765   3.73  26.7  147  1.5  0.00  0.00  0.00  0.00     5
  9 AUG  129 End Gr Fil   14259   0.70  26.7  178  1.3  0.72  0.00  0.00  0.00     6
 12 AUG  132 Maturity     14259   0.70  26.7  178  1.3  1.00  0.00  0.00  0.00    10
 12 AUG  132 Harvest      14259   0.70  26.7  178  1.3  0.00  0.00  0.00  0.00    10


*MAIN GROWTH AND DEVELOPMENT VARIABLES

@     VARIABLE                                         SIMULATED     MEASURED
      --------                                         ---------     --------
      Anthesis day (dap)                                      69          -99
      Physiological maturity day (dap)                       132          -99
      Yield at harvest maturity (kg [dm]/ha)                6147          -99
      Number at maturity (no/m2)                            3007          -99
      Unit wt at maturity (g [dm]/unit)                   0.2045          -99
      Number at maturity (no/unit)                         484.9          -99
      Tops weight at maturity (kg [dm]/ha)                 14259          -99
      By-product produced (stalk) at maturity (kg[dm]/ha    8181          -99
      Leaf area index, maximum                              4.11          -99
      Harvest index at maturity                            0.431          -99
      Grain N at maturity (kg/ha)                            111          -99
      Tops N at maturity (kg/ha)                             178          -99
      Stem N at maturity (kg/ha)                              67          -99
      Grain N at maturity (%)                                1.8          -99
      Tops weight at anthesis (kg [dm]/ha)                  7072          -99
      Tops N at anthesis (kg/ha)                             144          -99
      Leaf number per stem at maturity                     26.68          -99
      Emergence day (dap)                                      6          -99


*ENVIRONMENTAL AND STRESS FACTORS

 |-----Development Phase------|--------------------------------------Environment--------------------------------------|-----------------Stress-----------------|
                              |---------------Average--------------|-----Cumulative-----|--------Count of days--------|          (0=Min, 1=Max Stress)         |
                         Time  Temp  Temp  Temp Solar Photop                Evapo    Pot TMIN TMIN TMAX TMAX TMAX RAIN|----Water----|---Nitrogen--|-Phosphorus-|
                         Span   Max   Min  Mean   Rad  [day]    CO2   Rain  Trans     ET   <    <    >    >    >    >   Photo         Photo         Photo
                         days    邂    邂    邂 MJ/m2     hr    ppm     mm     mm     mm  0邂  2邂 30邂 32邂 34邂  0mm  synth Growth  synth Growth  synth Growth
----------------------------------------------------------------------------------------------------------------------------------------------------------------
 Emergence-End Juvenile    17  29.8  19.6  24.7  14.3  22.48  340.9   50.6   46.2   67.2    0    0   10    0    0   11  0.000  0.008  0.002  0.006  0.000  0.000
 End Juvenil-Floral Init    7  29.9  19.5  24.7  13.7  24.00  340.9   64.8   17.6   25.3    0    0    5    1    0    5  0.000  0.000  0.000  0.000  0.000  0.000
 Floral Init-End Lf Grow   39  29.7  19.6  24.6  14.5  24.00  340.9  181.1  136.3  136.4    0    0   13    0    0   22  0.000  0.000  0.000  0.000  0.000  0.000
 End Lf Grth-Beg Grn Fil   10  30.5  18.9  24.7  16.7  24.00  341.0   24.6   39.5   39.6    0    0    6    0    0    4  0.000  0.000  0.000  0.000  0.000  0.000
 Grain Filling Phase       50  31.8  18.3  25.0  18.5  24.00  341.1   38.8   86.7  228.0    0    0   43   19    4   11  0.651  0.702  0.000  0.000  0.000  0.000


 Planting to Harvest      132  30.6  19.0  24.8  16.2  23.48  341.0  394.2  348.8  533.7    0    0   81   23    6   58  0.269  0.290  0.000  0.001  0.000  0.000
----------------------------------------------------------------------------------------------------------------------------------------------------------------


*Resource Productivity
 Growing season length: 132 days 

 Precipitation during growing season       394.2 mm[rain]
   Dry Matter Productivity                  3.62 kg[DM]/m3[rain]          =   36.2 kg[DM]/ha per mm[rain]
   Yield Productivity                       1.56 kg[grain yield]/m3[rain] =   15.6 kg[yield]/ha per mm[rain]

 Evapotranspiration during growing season  348.8 mm[ET]
   Dry Matter Productivity                  4.09 kg[DM]/m3[ET]            =   40.9 kg[DM]/ha per mm[ET]
   Yield Productivity                       1.76 kg[grain yield]/m3[ET]   =   17.6 kg[yield]/ha per mm[ET]

 Transpiration during growing season       220.7 mm[EP]
   Dry Matter Productivity                  6.46 kg[DM]/m3[EP]            =   64.6 kg[DM]/ha per mm[EP]
   Yield Productivity                       2.79 kg[grain yield]/m3[EP]   =   27.9 kg[yield]/ha per mm[EP]

 N applied during growing season            161. kg[N applied]/ha
   Dry Matter Productivity                  88.6 kg[DM]/kg[N applied]
   Yield Productivity                       38.2 kg[yield]/kg[N applied]

 N uptake during growing season              196 kg[N uptake]/ha
   Dry Matter Productivity                  72.8 kg[DM]/kg[N uptake]
   Yield Productivity                       31.4 kg[yield]/kg[N uptake]

--------------------------------------------------------------------------------------------------------------

                     Maize YIELD :     6147 kg/ha    [Dry weight] 

**************************************************************************************************************

*DSSAT Cropping System Model Ver. 4.6.1.000 -release      OCT 02, 2017; 13:16:25
                                                                                
*RUN   2        : P04/07                    MZCER046 ANBU1982    2              
 MODEL          : MZCER046 - Maize                                              
 EXPERIMENT     : ANBU1982 MZ  Analisis a침os de bajo rendimiento Buga          
 DATA PATH      : C:\DSSAT46\maize\                                             
 TREATMENT  2   : P04/07                    MZCER046                            
                                                                                
                                                                                
 CROP           : Maize            CULTIVAR : DK234            ECOTYPE :IB0001  
 STARTING DATE  : MAR  8 1982                                                   
 PLANTING DATE  : APR  7 1982        PLANTS/m2 :  6.2     ROW SPACING :  80.cm  
 WEATHER        : CUNI   1982                                                   
 SOIL           : CCBUGA2017     TEXTURE : CL    -   Suelo Buga MADR Fase I     
 SOIL INITIAL C : DEPTH: 90cm EXTR. H2O: 83.9mm  NO3:151.4kg/ha  NH4: 62.4kg/ha 
 WATER BALANCE  : RAINFED                                                       
 IRRIGATION     : NOT IRRIGATED                                                 
 NITROGEN BAL.  : SOIL-N & N-UPTAKE SIMULATION; NO N-FIXATION                   
 N-FERTILIZER   :      161 kg/ha IN     5 APPLICATIONS                          
 RESIDUE/MANURE : INITIAL :     0 kg/ha ;       0 kg/ha IN     0 APPLICATIONS   
 ENVIRONM. OPT. : DAYL=    0.00  SRAD=    0.00  TMAX=    0.00  TMIN=    0.00    
                  RAIN=    0.00  CO2 =    0.00  DEW =    0.00  WIND=    0.00    
 SIMULATION OPT : WATER   :Y  NITROGEN:Y  N-FIX:N  PHOSPH :N  PESTS  :N         
                  PHOTO   :C  ET      :R  INFIL:S  HYDROL :R  SOM    :G         
                  CO2 341ppm  NSWIT   :1  EVAP :S  SOIL   :2  STEMP  :D         
 MANAGEMENT OPT : PLANTING:R  IRRIG   :N  FERT :D  RESIDUE:R  HARVEST:M         
                  WEATHER :M  TILLAGE :N                                        
                                                                                
*SUMMARY OF SOIL AND GENETIC INPUT PARAMETERS                                   
                                                                                
   SOIL LOWER UPPER   SAT  EXTR  INIT   ROOT   BULK     pH    NO3    NH4    ORG 
  DEPTH LIMIT LIMIT    SW    SW    SW   DIST   DENS                          C  
   cm   cm3/cm3    cm3/cm3    cm3/cm3         g/cm3         ugN/g  ugN/g     %  
------------------------------------------------------------------------------- 
  0-  5 0.215 0.331 0.341 0.116 0.319   1.00   1.68   6.70  11.90   4.21   0.75 
  5- 15 0.215 0.331 0.341 0.116 0.319   1.00   1.68   6.70  11.90   4.21   0.75 
 15- 25 0.215 0.331 0.341 0.116 0.319   1.00   1.68   6.70  11.90   4.21   0.75 
 25- 35 0.181 0.291 0.364 0.110 0.331   0.50   1.61   7.20  12.15   4.32   0.53 
 35- 45 0.181 0.291 0.364 0.110 0.344   0.50   1.61   7.20  12.40   4.44   0.53 
 45- 67 0.096 0.169 0.404 0.073 0.290   0.27   1.51   7.00  10.67   4.47   0.05 
 67- 90 0.096 0.169 0.404 0.073 0.195   0.27   1.51   7.00   7.63   4.53   0.05 
                                                                                
TOT- 90  13.3  21.7  34.0   8.4  25.6  <--cm   -  kg/ha-->  151.4   62.4  51964 
SOIL ALBEDO    : 0.09      EVAPORATION LIMIT : 6.00         MIN. FACTOR  : 1.00 
RUNOFF CURVE # :76.00      DRAINAGE RATE     : 0.60         FERT. FACTOR : 1.00 
                                                                                
 Maize      CULTIVAR :CI0002-DK234              ECOTYPE :IB0001                 
 P1     : 300.00  P2     : 0.4000  P5     :1075.00                              
 G2     : 890.00  G3     :  7.750  PHINT  : 40.000                              


*SIMULATED CROP AND SOIL STATUS AT MAIN DEVELOPMENT STAGES

 RUN NO.     2     P04/07                  

        CROP GROWTH     BIOMASS         LEAF   CROP N     STRESS      STRESS                                           
   DATE  AGE STAGE        kg/ha    LAI   NUM  kg/ha  %   H2O  Nitr Phos1 Phos2  RSTG                                   
 ------  --- ----------   -----  -----  ----  ---  ---  ----  ----  ----  ----  ----                                   
  8 MAR    0 Start Sim        0   0.00   0.0    0  0.0  0.00  0.00  0.00  0.00     7
  7 APR    0 Sowing           0   0.00   0.0    0  0.0  0.00  0.00  0.00  0.00     8
  8 APR    1 Germinate        0   0.00   0.0    0  0.0  0.00  0.00  0.00  0.00     9
 13 APR    6 Emergence       25   0.00   2.1    1  4.4  0.00  0.01  0.00  0.00     1
 30 APR   23 End Juveni     261   0.49  10.1    9  3.3  0.01  0.00  0.00  0.00     2
  8 MAY   31 Floral Ini     665   1.04  13.5   24  3.6  0.00  0.00  0.00  0.00     3
 17 JUN   71 75% Silkin    7929   4.21  28.0  159  2.0  0.00  0.00  0.00  0.00     4
 28 JUN   82 Beg Gr Fil   10186   3.84  28.0  159  1.6  0.18  0.00  0.00  0.00     5
  Crop mature on JD 227 due to slowed grain filling
 16 AUG  131 End Gr Fil   12985   0.54  28.0  162  1.2  0.82  0.00  0.00  0.00     6
 17 AUG  132 Maturity     12985   0.54  28.0  162  1.2  0.00  0.00  0.00  0.00    10
 17 AUG  132 Harvest      12985   0.54  28.0  162  1.2  0.00  0.00  0.00  0.00    10


*MAIN GROWTH AND DEVELOPMENT VARIABLES

@     VARIABLE                                         SIMULATED     MEASURED
      --------                                         ---------     --------
      Anthesis day (dap)                                      71          -99
      Physiological maturity day (dap)                       132          -99
      Yield at harvest maturity (kg [dm]/ha)                4250          -99
      Number at maturity (no/m2)                            2725          -99
      Unit wt at maturity (g [dm]/unit)                   0.1560          -99
      Number at maturity (no/unit)                         439.5          -99
      Tops weight at maturity (kg [dm]/ha)                 12985          -99
      By-product produced (stalk) at maturity (kg[dm]/ha    8810          -99
      Leaf area index, maximum                              4.35          -99
      Harvest index at maturity                            0.327          -99
      Grain N at maturity (kg/ha)                             78          -99
      Tops N at maturity (kg/ha)                             162          -99
      Stem N at maturity (kg/ha)                              84          -99
      Grain N at maturity (%)                                1.8          -99
      Tops weight at anthesis (kg [dm]/ha)                  7706          -99
      Tops N at anthesis (kg/ha)                             158          -99
      Leaf number per stem at maturity                     28.00          -99
      Emergence day (dap)                                      6          -99


*ENVIRONMENTAL AND STRESS FACTORS

 |-----Development Phase------|--------------------------------------Environment--------------------------------------|-----------------Stress-----------------|
                              |---------------Average--------------|-----Cumulative-----|--------Count of days--------|          (0=Min, 1=Max Stress)         |
                         Time  Temp  Temp  Temp Solar Photop                Evapo    Pot TMIN TMIN TMAX TMAX TMAX RAIN|----Water----|---Nitrogen--|-Phosphorus-|
                         Span   Max   Min  Mean   Rad  [day]    CO2   Rain  Trans     ET   <    <    >    >    >    >   Photo         Photo         Photo
                         days    邂    邂    邂 MJ/m2     hr    ppm     mm     mm     mm  0邂  2邂 30邂 32邂 34邂  0mm  synth Growth  synth Growth  synth Growth
----------------------------------------------------------------------------------------------------------------------------------------------------------------
 Emergence-End Juvenile    17  29.9  19.6  24.8  14.3  23.81  340.9   25.7   35.2   67.1    0    0   11    1    0   10  0.000  0.006  0.002  0.005  0.000  0.000
 End Juvenil-Floral Init    8  30.4  19.7  25.1  13.3  24.00  340.9   71.7   26.9   28.0    0    0    5    0    0    6  0.000  0.000  0.000  0.000  0.000  0.000
 Floral Init-End Lf Grow   40  29.7  19.4  24.6  15.2  24.00  341.0  181.6  144.8  146.3    0    0   14    0    0   21  0.000  0.000  0.000  0.000  0.000  0.000
 End Lf Grth-Beg Grn Fil   11  30.2  18.6  24.4  15.8  24.00  341.1   10.7   38.3   40.8    0    0    5    0    0    3  0.052  0.112  0.000  0.000  0.000  0.000
 Grain Filling Phase       49  32.5  18.2  25.3  19.1  24.00  341.1   52.3   62.4  233.9    0    0   47   26    9   10  0.796  0.834  0.000  0.000  0.000  0.000


 Planting to Harvest      132  30.8  18.9  24.9  16.4  23.76  341.0  390.5  334.5  545.4    0    0   86   28    9   56  0.300  0.320  0.000  0.001  0.000  0.000
----------------------------------------------------------------------------------------------------------------------------------------------------------------


*Resource Productivity
 Growing season length: 132 days 

 Precipitation during growing season       390.5 mm[rain]
   Dry Matter Productivity                  3.33 kg[DM]/m3[rain]          =   33.3 kg[DM]/ha per mm[rain]
   Yield Productivity                       1.09 kg[grain yield]/m3[rain] =   10.9 kg[yield]/ha per mm[rain]

 Evapotranspiration during growing season  334.5 mm[ET]
   Dry Matter Productivity                  3.88 kg[DM]/m3[ET]            =   38.8 kg[DM]/ha per mm[ET]
   Yield Productivity                       1.27 kg[grain yield]/m3[ET]   =   12.7 kg[yield]/ha per mm[ET]

 Transpiration during growing season       209.4 mm[EP]
   Dry Matter Productivity                  6.20 kg[DM]/m3[EP]            =   62.0 kg[DM]/ha per mm[EP]
   Yield Productivity                       2.03 kg[grain yield]/m3[EP]   =   20.3 kg[yield]/ha per mm[EP]

 N applied during growing season            161. kg[N applied]/ha
   Dry Matter Productivity                  80.7 kg[DM]/kg[N applied]
   Yield Productivity                       26.4 kg[yield]/kg[N applied]

 N uptake during growing season              180 kg[N uptake]/ha
   Dry Matter Productivity                  72.1 kg[DM]/kg[N uptake]
   Yield Productivity                       23.6 kg[yield]/kg[N uptake]

--------------------------------------------------------------------------------------------------------------

                     Maize YIELD :     4250 kg/ha    [Dry weight] 

**************************************************************************************************************

*DSSAT Cropping System Model Ver. 4.6.1.000 -release      OCT 02, 2017; 13:16:25
                                                                                
*RUN   3        : P04/12                    MZCER046 ANBU1982    3              
 MODEL          : MZCER046 - Maize                                              
 EXPERIMENT     : ANBU1982 MZ  Analisis a침os de bajo rendimiento Buga          
 DATA PATH      : C:\DSSAT46\maize\                                             
 TREATMENT  3   : P04/12                    MZCER046                            
                                                                                
                                                                                
 CROP           : Maize            CULTIVAR : DK234            ECOTYPE :IB0001  
 STARTING DATE  : MAR 13 1982                                                   
 PLANTING DATE  : APR 12 1982        PLANTS/m2 :  6.2     ROW SPACING :  80.cm  
 WEATHER        : CUNI   1982                                                   
 SOIL           : CCBUGA2017     TEXTURE : CL    -   Suelo Buga MADR Fase I     
 SOIL INITIAL C : DEPTH: 90cm EXTR. H2O: 83.9mm  NO3:151.4kg/ha  NH4: 62.4kg/ha 
 WATER BALANCE  : RAINFED                                                       
 IRRIGATION     : NOT IRRIGATED                                                 
 NITROGEN BAL.  : SOIL-N & N-UPTAKE SIMULATION; NO N-FIXATION                   
 N-FERTILIZER   :      161 kg/ha IN     5 APPLICATIONS                          
 RESIDUE/MANURE : INITIAL :     0 kg/ha ;       0 kg/ha IN     0 APPLICATIONS   
 ENVIRONM. OPT. : DAYL=    0.00  SRAD=    0.00  TMAX=    0.00  TMIN=    0.00    
                  RAIN=    0.00  CO2 =    0.00  DEW =    0.00  WIND=    0.00    
 SIMULATION OPT : WATER   :Y  NITROGEN:Y  N-FIX:N  PHOSPH :N  PESTS  :N         
                  PHOTO   :C  ET      :R  INFIL:S  HYDROL :R  SOM    :G         
                  CO2 341ppm  NSWIT   :1  EVAP :S  SOIL   :2  STEMP  :D         
 MANAGEMENT OPT : PLANTING:R  IRRIG   :N  FERT :D  RESIDUE:R  HARVEST:M         
                  WEATHER :M  TILLAGE :N                                        
                                                                                
*SUMMARY OF SOIL AND GENETIC INPUT PARAMETERS                                   
                                                                                
   SOIL LOWER UPPER   SAT  EXTR  INIT   ROOT   BULK     pH    NO3    NH4    ORG 
  DEPTH LIMIT LIMIT    SW    SW    SW   DIST   DENS                          C  
   cm   cm3/cm3    cm3/cm3    cm3/cm3         g/cm3         ugN/g  ugN/g     %  
------------------------------------------------------------------------------- 
  0-  5 0.215 0.331 0.341 0.116 0.319   1.00   1.68   6.70  11.90   4.21   0.75 
  5- 15 0.215 0.331 0.341 0.116 0.319   1.00   1.68   6.70  11.90   4.21   0.75 
 15- 25 0.215 0.331 0.341 0.116 0.319   1.00   1.68   6.70  11.90   4.21   0.75 
 25- 35 0.181 0.291 0.364 0.110 0.331   0.50   1.61   7.20  12.15   4.32   0.53 
 35- 45 0.181 0.291 0.364 0.110 0.344   0.50   1.61   7.20  12.40   4.44   0.53 
 45- 67 0.096 0.169 0.404 0.073 0.290   0.27   1.51   7.00  10.67   4.47   0.05 
 67- 90 0.096 0.169 0.404 0.073 0.195   0.27   1.51   7.00   7.63   4.53   0.05 
                                                                                
TOT- 90  13.3  21.7  34.0   8.4  25.6  <--cm   -  kg/ha-->  151.4   62.4  51964 
SOIL ALBEDO    : 0.09      EVAPORATION LIMIT : 6.00         MIN. FACTOR  : 1.00 
RUNOFF CURVE # :76.00      DRAINAGE RATE     : 0.60         FERT. FACTOR : 1.00 
                                                                                
 Maize      CULTIVAR :CI0002-DK234              ECOTYPE :IB0001                 
 P1     : 300.00  P2     : 0.4000  P5     :1075.00                              
 G2     : 890.00  G3     :  7.750  PHINT  : 40.000                              


*SIMULATED CROP AND SOIL STATUS AT MAIN DEVELOPMENT STAGES

 RUN NO.     3     P04/12                  

        CROP GROWTH     BIOMASS         LEAF   CROP N     STRESS      STRESS                                           
   DATE  AGE STAGE        kg/ha    LAI   NUM  kg/ha  %   H2O  Nitr Phos1 Phos2  RSTG                                   
 ------  --- ----------   -----  -----  ----  ---  ---  ----  ----  ----  ----  ----                                   
 13 MAR    0 Start Sim        0   0.00   0.0    0  0.0  0.00  0.00  0.00  0.00     7
 12 APR    0 Sowing           0   0.00   0.0    0  0.0  0.00  0.00  0.00  0.00     8
 13 APR    1 Germinate        0   0.00   0.0    0  0.0  0.00  0.00  0.00  0.00     9
 18 APR    6 Emergence       25   0.00   2.1    1  4.4  0.00  0.01  0.00  0.00     1
  5 MAY   23 End Juveni     215   0.42  10.1    8  3.5  0.00  0.00  0.00  0.00     2
 13 MAY   31 Floral Ini     637   1.01  13.5   23  3.6  0.00  0.00  0.00  0.00     3
 23 JUN   72 75% Silkin    8420   4.34  28.0  170  2.0  0.00  0.00  0.00  0.00     4
  3 JUL   82 Beg Gr Fil    9516   3.34  28.0  170  1.8  0.63  0.00  0.00  0.00     5
 21 AUG  131 End Gr Fil   11994   0.57  28.0  170  1.4  0.75  0.00  0.00  0.00     6
 23 AUG  133 Maturity     11994   0.57  28.0  170  1.4  0.88  0.00  0.00  0.00    10
 23 AUG  133 Harvest      11994   0.57  28.0  170  1.4  0.00  0.00  0.00  0.00    10


*MAIN GROWTH AND DEVELOPMENT VARIABLES

@     VARIABLE                                         SIMULATED     MEASURED
      --------                                         ---------     --------
      Anthesis day (dap)                                      72          -99
      Physiological maturity day (dap)                       133          -99
      Yield at harvest maturity (kg [dm]/ha)                4148          -99
      Number at maturity (no/m2)                            1973          -99
      Unit wt at maturity (g [dm]/unit)                   0.2102          -99
      Number at maturity (no/unit)                         318.2          -99
      Tops weight at maturity (kg [dm]/ha)                 11994          -99
      By-product produced (stalk) at maturity (kg[dm]/ha    7923          -99
      Leaf area index, maximum                              4.47          -99
      Harvest index at maturity                            0.346          -99
      Grain N at maturity (kg/ha)                             76          -99
      Tops N at maturity (kg/ha)                             170          -99
      Stem N at maturity (kg/ha)                              94          -99
      Grain N at maturity (%)                                1.8          -99
      Tops weight at anthesis (kg [dm]/ha)                  8171          -99
      Tops N at anthesis (kg/ha)                             169          -99
      Leaf number per stem at maturity                     27.98          -99
      Emergence day (dap)                                      6          -99


*ENVIRONMENTAL AND STRESS FACTORS

 |-----Development Phase------|--------------------------------------Environment--------------------------------------|-----------------Stress-----------------|
                              |---------------Average--------------|-----Cumulative-----|--------Count of days--------|          (0=Min, 1=Max Stress)         |
                         Time  Temp  Temp  Temp Solar Photop                Evapo    Pot TMIN TMIN TMAX TMAX TMAX RAIN|----Water----|---Nitrogen--|-Phosphorus-|
                         Span   Max   Min  Mean   Rad  [day]    CO2   Rain  Trans     ET   <    <    >    >    >    >   Photo         Photo         Photo
                         days    邂    邂    邂 MJ/m2     hr    ppm     mm     mm     mm  0邂  2邂 30邂 32邂 34邂  0mm  synth Growth  synth Growth  synth Growth
----------------------------------------------------------------------------------------------------------------------------------------------------------------
 Emergence-End Juvenile    17  30.1  19.8  24.9  13.5  24.00  340.9   83.0   37.0   64.0    0    0   11    1    0   13  0.000  0.000  0.002  0.005  0.000  0.000
 End Juvenil-Floral Init    8  29.6  19.8  24.7  13.1  24.00  340.9   17.4   24.3   27.6    0    0    3    0    0    3  0.000  0.000  0.000  0.001  0.000  0.000
 Floral Init-End Lf Grow   41  29.8  19.2  24.5  15.3  24.00  341.0  179.9  148.8  150.9    0    0   14    0    0   22  0.000  0.000  0.000  0.000  0.000  0.000
 End Lf Grth-Beg Grn Fil   10  31.6  18.6  25.1  18.3  24.00  341.1    0.0   25.4   43.6    0    0    8    3    1    0  0.428  0.552  0.000  0.000  0.000  0.000
 Grain Filling Phase       49  32.6  18.3  25.4  19.3  24.00  341.1   65.5   72.2  239.2    0    0   47   28   10   11  0.719  0.750  0.000  0.000  0.000  0.000


 Planting to Harvest      133  31.0  18.9  25.0  16.7  23.95  341.0  355.5  326.4  563.1    0    0   89   34   12   52  0.308  0.330  0.000  0.001  0.000  0.000
----------------------------------------------------------------------------------------------------------------------------------------------------------------


*Resource Productivity
 Growing season length: 133 days 

 Precipitation during growing season       355.5 mm[rain]
   Dry Matter Productivity                  3.37 kg[DM]/m3[rain]          =   33.7 kg[DM]/ha per mm[rain]
   Yield Productivity                       1.17 kg[grain yield]/m3[rain] =   11.7 kg[yield]/ha per mm[rain]

 Evapotranspiration during growing season  326.4 mm[ET]
   Dry Matter Productivity                  3.67 kg[DM]/m3[ET]            =   36.7 kg[DM]/ha per mm[ET]
   Yield Productivity                       1.27 kg[grain yield]/m3[ET]   =   12.7 kg[yield]/ha per mm[ET]

 Transpiration during growing season       199.1 mm[EP]
   Dry Matter Productivity                  6.02 kg[DM]/m3[EP]            =   60.2 kg[DM]/ha per mm[EP]
   Yield Productivity                       2.08 kg[grain yield]/m3[EP]   =   20.8 kg[yield]/ha per mm[EP]

 N applied during growing season            161. kg[N applied]/ha
   Dry Matter Productivity                  74.5 kg[DM]/kg[N applied]
   Yield Productivity                       25.8 kg[yield]/kg[N applied]

 N uptake during growing season              185 kg[N uptake]/ha
   Dry Matter Productivity                  64.8 kg[DM]/kg[N uptake]
   Yield Productivity                       22.4 kg[yield]/kg[N uptake]

--------------------------------------------------------------------------------------------------------------

                     Maize YIELD :     4148 kg/ha    [Dry weight] 

**************************************************************************************************************

*DSSAT Cropping System Model Ver. 4.6.1.000 -release      OCT 02, 2017; 13:16:26
                                                                                
*RUN   4        : P04/17                    MZCER046 ANBU1982    4              
 MODEL          : MZCER046 - Maize                                              
 EXPERIMENT     : ANBU1982 MZ  Analisis a침os de bajo rendimiento Buga          
 DATA PATH      : C:\DSSAT46\maize\                                             
 TREATMENT  4   : P04/17                    MZCER046                            
                                                                                
                                                                                
 CROP           : Maize            CULTIVAR : DK234            ECOTYPE :IB0001  
 STARTING DATE  : MAR 18 1982                                                   
 PLANTING DATE  : APR 17 1982        PLANTS/m2 :  6.2     ROW SPACING :  80.cm  
 WEATHER        : CUNI   1982                                                   
 SOIL           : CCBUGA2017     TEXTURE : CL    -   Suelo Buga MADR Fase I     
 SOIL INITIAL C : DEPTH: 90cm EXTR. H2O: 83.9mm  NO3:151.4kg/ha  NH4: 62.4kg/ha 
 WATER BALANCE  : RAINFED                                                       
 IRRIGATION     : NOT IRRIGATED                                                 
 NITROGEN BAL.  : SOIL-N & N-UPTAKE SIMULATION; NO N-FIXATION                   
 N-FERTILIZER   :      161 kg/ha IN     5 APPLICATIONS                          
 RESIDUE/MANURE : INITIAL :     0 kg/ha ;       0 kg/ha IN     0 APPLICATIONS   
 ENVIRONM. OPT. : DAYL=    0.00  SRAD=    0.00  TMAX=    0.00  TMIN=    0.00    
                  RAIN=    0.00  CO2 =    0.00  DEW =    0.00  WIND=    0.00    
 SIMULATION OPT : WATER   :Y  NITROGEN:Y  N-FIX:N  PHOSPH :N  PESTS  :N         
                  PHOTO   :C  ET      :R  INFIL:S  HYDROL :R  SOM    :G         
                  CO2 341ppm  NSWIT   :1  EVAP :S  SOIL   :2  STEMP  :D         
 MANAGEMENT OPT : PLANTING:R  IRRIG   :N  FERT :D  RESIDUE:R  HARVEST:M         
                  WEATHER :M  TILLAGE :N                                        
                                                                                
*SUMMARY OF SOIL AND GENETIC INPUT PARAMETERS                                   
                                                                                
   SOIL LOWER UPPER   SAT  EXTR  INIT   ROOT   BULK     pH    NO3    NH4    ORG 
  DEPTH LIMIT LIMIT    SW    SW    SW   DIST   DENS                          C  
   cm   cm3/cm3    cm3/cm3    cm3/cm3         g/cm3         ugN/g  ugN/g     %  
------------------------------------------------------------------------------- 
  0-  5 0.215 0.331 0.341 0.116 0.319   1.00   1.68   6.70  11.90   4.21   0.75 
  5- 15 0.215 0.331 0.341 0.116 0.319   1.00   1.68   6.70  11.90   4.21   0.75 
 15- 25 0.215 0.331 0.341 0.116 0.319   1.00   1.68   6.70  11.90   4.21   0.75 
 25- 35 0.181 0.291 0.364 0.110 0.331   0.50   1.61   7.20  12.15   4.32   0.53 
 35- 45 0.181 0.291 0.364 0.110 0.344   0.50   1.61   7.20  12.40   4.44   0.53 
 45- 67 0.096 0.169 0.404 0.073 0.290   0.27   1.51   7.00  10.67   4.47   0.05 
 67- 90 0.096 0.169 0.404 0.073 0.195   0.27   1.51   7.00   7.63   4.53   0.05 
                                                                                
TOT- 90  13.3  21.7  34.0   8.4  25.6  <--cm   -  kg/ha-->  151.4   62.4  51964 
SOIL ALBEDO    : 0.09      EVAPORATION LIMIT : 6.00         MIN. FACTOR  : 1.00 
RUNOFF CURVE # :76.00      DRAINAGE RATE     : 0.60         FERT. FACTOR : 1.00 
                                                                                
 Maize      CULTIVAR :CI0002-DK234              ECOTYPE :IB0001                 
 P1     : 300.00  P2     : 0.4000  P5     :1075.00                              
 G2     : 890.00  G3     :  7.750  PHINT  : 40.000                              


*SIMULATED CROP AND SOIL STATUS AT MAIN DEVELOPMENT STAGES

 RUN NO.     4     P04/17                  

        CROP GROWTH     BIOMASS         LEAF   CROP N     STRESS      STRESS                                           
   DATE  AGE STAGE        kg/ha    LAI   NUM  kg/ha  %   H2O  Nitr Phos1 Phos2  RSTG                                   
 ------  --- ----------   -----  -----  ----  ---  ---  ----  ----  ----  ----  ----                                   
 18 MAR    0 Start Sim        0   0.00   0.0    0  0.0  0.00  0.00  0.00  0.00     7
 17 APR    0 Sowing           0   0.00   0.0    0  0.0  0.00  0.00  0.00  0.00     8
 18 APR    1 Germinate        0   0.00   0.0    0  0.0  0.00  0.00  0.00  0.00     9
 23 APR    6 Emergence       25   0.00   2.1    1  4.4  0.00  0.01  0.00  0.00     1
 10 MAY   23 End Juveni     175   0.35  10.1    6  3.5  0.00  0.00  0.00  0.00     2
 18 MAY   31 Floral Ini     579   0.93  13.5   21  3.6  0.00  0.00  0.00  0.00     3
 28 JUN   72 75% Silkin    8139   4.11  27.9  174  2.1  0.06  0.00  0.00  0.00     4
  8 JUL   82 Beg Gr Fil    9236   3.30  27.9  174  1.9  0.51  0.00  0.00  0.00     5
 25 AUG  130 End Gr Fil   11187   0.50  27.9  174  1.6  0.82  0.00  0.00  0.00     6
 28 AUG  133 Maturity     11187   0.50  27.9  174  1.6  0.95  0.00  0.00  0.00    10
 28 AUG  133 Harvest      11187   0.50  27.9  174  1.6  0.00  0.00  0.00  0.00    10


*MAIN GROWTH AND DEVELOPMENT VARIABLES

@     VARIABLE                                         SIMULATED     MEASURED
      --------                                         ---------     --------
      Anthesis day (dap)                                      72          -99
      Physiological maturity day (dap)                       133          -99
      Yield at harvest maturity (kg [dm]/ha)                3330          -99
      Number at maturity (no/m2)                            1787          -99
      Unit wt at maturity (g [dm]/unit)                   0.1863          -99
      Number at maturity (no/unit)                         288.2          -99
      Tops weight at maturity (kg [dm]/ha)                 11187          -99
      By-product produced (stalk) at maturity (kg[dm]/ha    7934          -99
      Leaf area index, maximum                              4.39          -99
      Harvest index at maturity                            0.298          -99
      Grain N at maturity (kg/ha)                             62          -99
      Tops N at maturity (kg/ha)                             174          -99
      Stem N at maturity (kg/ha)                             113          -99
      Grain N at maturity (%)                                1.8          -99
      Tops weight at anthesis (kg [dm]/ha)                  8036          -99
      Tops N at anthesis (kg/ha)                             172          -99
      Leaf number per stem at maturity                     27.88          -99
      Emergence day (dap)                                      6          -99


*ENVIRONMENTAL AND STRESS FACTORS

 |-----Development Phase------|--------------------------------------Environment--------------------------------------|-----------------Stress-----------------|
                              |---------------Average--------------|-----Cumulative-----|--------Count of days--------|          (0=Min, 1=Max Stress)         |
                         Time  Temp  Temp  Temp Solar Photop                Evapo    Pot TMIN TMIN TMAX TMAX TMAX RAIN|----Water----|---Nitrogen--|-Phosphorus-|
                         Span   Max   Min  Mean   Rad  [day]    CO2   Rain  Trans     ET   <    <    >    >    >    >   Photo         Photo         Photo
                         days    邂    邂    邂 MJ/m2     hr    ppm     mm     mm     mm  0邂  2邂 30邂 32邂 34邂  0mm  synth Growth  synth Growth  synth Growth
----------------------------------------------------------------------------------------------------------------------------------------------------------------
 Emergence-End Juvenile    17  30.0  19.8  24.9  13.0  24.00  340.9   87.9   42.4   61.5    0    0    9    1    0   11  0.000  0.000  0.002  0.005  0.000  0.000
 End Juvenil-Floral Init    8  30.0  19.5  24.8  15.4  24.00  340.9   57.0   22.7   32.7    0    0    4    0    0    5  0.000  0.000  0.000  0.001  0.000  0.000
 Floral Init-End Lf Grow   41  29.8  19.2  24.5  15.6  24.00  341.0  127.1  148.9  154.0    0    0   15    0    0   18  0.028  0.043  0.000  0.000  0.000  0.000
 End Lf Grth-Beg Grn Fil   10  31.9  18.4  25.2  18.4  24.00  341.1   25.6   24.1   44.0    0    0   10    3    1    2  0.492  0.561  0.000  0.000  0.000  0.000
 Grain Filling Phase       48  32.9  18.3  25.6  19.6  24.00  341.1   40.2   61.2  241.3    0    0   46   32   12   10  0.765  0.802  0.000  0.000  0.000  0.000


 Planting to Harvest      133  31.2  18.9  25.1  16.9  24.00  341.0  346.9  314.1  573.2    0    0   90   39   16   51  0.342  0.366  0.000  0.001  0.000  0.000
----------------------------------------------------------------------------------------------------------------------------------------------------------------


*Resource Productivity
 Growing season length: 133 days 

 Precipitation during growing season       346.9 mm[rain]
   Dry Matter Productivity                  3.22 kg[DM]/m3[rain]          =   32.2 kg[DM]/ha per mm[rain]
   Yield Productivity                       0.96 kg[grain yield]/m3[rain] =    9.6 kg[yield]/ha per mm[rain]

 Evapotranspiration during growing season  314.1 mm[ET]
   Dry Matter Productivity                  3.56 kg[DM]/m3[ET]            =   35.6 kg[DM]/ha per mm[ET]
   Yield Productivity                       1.06 kg[grain yield]/m3[ET]   =   10.6 kg[yield]/ha per mm[ET]

 Transpiration during growing season       181.0 mm[EP]
   Dry Matter Productivity                  6.18 kg[DM]/m3[EP]            =   61.8 kg[DM]/ha per mm[EP]
   Yield Productivity                       1.84 kg[grain yield]/m3[EP]   =   18.4 kg[yield]/ha per mm[EP]

 N applied during growing season            161. kg[N applied]/ha
   Dry Matter Productivity                  69.5 kg[DM]/kg[N applied]
   Yield Productivity                       20.7 kg[yield]/kg[N applied]

 N uptake during growing season              188 kg[N uptake]/ha
   Dry Matter Productivity                  59.5 kg[DM]/kg[N uptake]
   Yield Productivity                       17.7 kg[yield]/kg[N uptake]

--------------------------------------------------------------------------------------------------------------

                     Maize YIELD :     3330 kg/ha    [Dry weight] 

**************************************************************************************************************

*DSSAT Cropping System Model Ver. 4.6.1.000 -release      OCT 02, 2017; 13:16:26
                                                                                
*RUN   5        : P04/22                    MZCER046 ANBU1982    5              
 MODEL          : MZCER046 - Maize                                              
 EXPERIMENT     : ANBU1982 MZ  Analisis a침os de bajo rendimiento Buga          
 DATA PATH      : C:\DSSAT46\maize\                                             
 TREATMENT  5   : P04/22                    MZCER046                            
                                                                                
                                                                                
 CROP           : Maize            CULTIVAR : DK234            ECOTYPE :IB0001  
 STARTING DATE  : MAR 23 1982                                                   
 PLANTING DATE  : APR 22 1982        PLANTS/m2 :  6.2     ROW SPACING :  80.cm  
 WEATHER        : CUNI   1982                                                   
 SOIL           : CCBUGA2017     TEXTURE : CL    -   Suelo Buga MADR Fase I     
 SOIL INITIAL C : DEPTH: 90cm EXTR. H2O: 83.9mm  NO3:151.4kg/ha  NH4: 62.4kg/ha 
 WATER BALANCE  : RAINFED                                                       
 IRRIGATION     : NOT IRRIGATED                                                 
 NITROGEN BAL.  : SOIL-N & N-UPTAKE SIMULATION; NO N-FIXATION                   
 N-FERTILIZER   :      161 kg/ha IN     5 APPLICATIONS                          
 RESIDUE/MANURE : INITIAL :     0 kg/ha ;       0 kg/ha IN     0 APPLICATIONS   
 ENVIRONM. OPT. : DAYL=    0.00  SRAD=    0.00  TMAX=    0.00  TMIN=    0.00    
                  RAIN=    0.00  CO2 =    0.00  DEW =    0.00  WIND=    0.00    
 SIMULATION OPT : WATER   :Y  NITROGEN:Y  N-FIX:N  PHOSPH :N  PESTS  :N         
                  PHOTO   :C  ET      :R  INFIL:S  HYDROL :R  SOM    :G         
                  CO2 341ppm  NSWIT   :1  EVAP :S  SOIL   :2  STEMP  :D         
 MANAGEMENT OPT : PLANTING:R  IRRIG   :N  FERT :D  RESIDUE:R  HARVEST:M         
                  WEATHER :M  TILLAGE :N                                        
                                                                                
*SUMMARY OF SOIL AND GENETIC INPUT PARAMETERS                                   
                                                                                
   SOIL LOWER UPPER   SAT  EXTR  INIT   ROOT   BULK     pH    NO3    NH4    ORG 
  DEPTH LIMIT LIMIT    SW    SW    SW   DIST   DENS                          C  
   cm   cm3/cm3    cm3/cm3    cm3/cm3         g/cm3         ugN/g  ugN/g     %  
------------------------------------------------------------------------------- 
  0-  5 0.215 0.331 0.341 0.116 0.319   1.00   1.68   6.70  11.90   4.21   0.75 
  5- 15 0.215 0.331 0.341 0.116 0.319   1.00   1.68   6.70  11.90   4.21   0.75 
 15- 25 0.215 0.331 0.341 0.116 0.319   1.00   1.68   6.70  11.90   4.21   0.75 
 25- 35 0.181 0.291 0.364 0.110 0.331   0.50   1.61   7.20  12.15   4.32   0.53 
 35- 45 0.181 0.291 0.364 0.110 0.344   0.50   1.61   7.20  12.40   4.44   0.53 
 45- 67 0.096 0.169 0.404 0.073 0.290   0.27   1.51   7.00  10.67   4.47   0.05 
 67- 90 0.096 0.169 0.404 0.073 0.195   0.27   1.51   7.00   7.63   4.53   0.05 
                                                                                
TOT- 90  13.3  21.7  34.0   8.4  25.6  <--cm   -  kg/ha-->  151.4   62.4  51964 
SOIL ALBEDO    : 0.09      EVAPORATION LIMIT : 6.00         MIN. FACTOR  : 1.00 
RUNOFF CURVE # :76.00      DRAINAGE RATE     : 0.60         FERT. FACTOR : 1.00 
                                                                                
 Maize      CULTIVAR :CI0002-DK234              ECOTYPE :IB0001                 
 P1     : 300.00  P2     : 0.4000  P5     :1075.00                              
 G2     : 890.00  G3     :  7.750  PHINT  : 40.000                              


*SIMULATED CROP AND SOIL STATUS AT MAIN DEVELOPMENT STAGES

 RUN NO.     5     P04/22                  

        CROP GROWTH     BIOMASS         LEAF   CROP N     STRESS      STRESS                                           
   DATE  AGE STAGE        kg/ha    LAI   NUM  kg/ha  %   H2O  Nitr Phos1 Phos2  RSTG                                   
 ------  --- ----------   -----  -----  ----  ---  ---  ----  ----  ----  ----  ----                                   
 23 MAR    0 Start Sim        0   0.00   0.0    0  0.0  0.00  0.00  0.00  0.00     7
 22 APR    0 Sowing           0   0.00   0.0    0  0.0  0.00  0.00  0.00  0.00     8
 23 APR    1 Germinate        0   0.00   0.0    0  0.0  0.00  0.00  0.00  0.00     9
 28 APR    6 Emergence       25   0.00   2.0    1  4.4  0.00  0.01  0.00  0.00     1
 15 MAY   23 End Juveni     186   0.37  10.0    6  3.5  0.00  0.00  0.00  0.00     2
 23 MAY   31 Floral Ini     542   0.89  13.3   19  3.6  0.00  0.00  0.00  0.00     3
  2 JUL   71 75% Silkin    7526   3.50  27.4  167  2.2  0.15  0.00  0.00  0.00     4
 12 JUL   81 Beg Gr Fil    8920   2.94  27.4  167  1.9  0.42  0.00  0.00  0.00     5
 29 AUG  129 End Gr Fil   10430   0.41  27.4  167  1.6  0.85  0.00  0.00  0.00     6
  1 SEP  132 Maturity     10430   0.41  27.4  167  1.6  0.33  0.00  0.00  0.00    10
  1 SEP  132 Harvest      10430   0.41  27.4  167  1.6  0.00  0.00  0.00  0.00    10


*MAIN GROWTH AND DEVELOPMENT VARIABLES

@     VARIABLE                                         SIMULATED     MEASURED
      --------                                         ---------     --------
      Anthesis day (dap)                                      71          -99
      Physiological maturity day (dap)                       132          -99
      Yield at harvest maturity (kg [dm]/ha)                2920          -99
      Number at maturity (no/m2)                            1973          -99
      Unit wt at maturity (g [dm]/unit)                   0.1480          -99
      Number at maturity (no/unit)                         318.3          -99
      Tops weight at maturity (kg [dm]/ha)                 10430          -99
      By-product produced (stalk) at maturity (kg[dm]/ha    7584          -99
      Leaf area index, maximum                              4.26          -99
      Harvest index at maturity                            0.280          -99
      Grain N at maturity (kg/ha)                             54          -99
      Tops N at maturity (kg/ha)                             167          -99
      Stem N at maturity (kg/ha)                             113          -99
      Grain N at maturity (%)                                1.9          -99
      Tops weight at anthesis (kg [dm]/ha)                  7480          -99
      Tops N at anthesis (kg/ha)                             167          -99
      Leaf number per stem at maturity                     27.40          -99
      Emergence day (dap)                                      6          -99


*ENVIRONMENTAL AND STRESS FACTORS

 |-----Development Phase------|--------------------------------------Environment--------------------------------------|-----------------Stress-----------------|
                              |---------------Average--------------|-----Cumulative-----|--------Count of days--------|          (0=Min, 1=Max Stress)         |
                         Time  Temp  Temp  Temp Solar Photop                Evapo    Pot TMIN TMIN TMAX TMAX TMAX RAIN|----Water----|---Nitrogen--|-Phosphorus-|
                         Span   Max   Min  Mean   Rad  [day]    CO2   Rain  Trans     ET   <    <    >    >    >    >   Photo         Photo         Photo
                         days    邂    邂    邂 MJ/m2     hr    ppm     mm     mm     mm  0邂  2邂 30邂 32邂 34邂  0mm  synth Growth  synth Growth  synth Growth
----------------------------------------------------------------------------------------------------------------------------------------------------------------
 Emergence-End Juvenile    17  29.7  19.7  24.7  13.0  24.00  340.9   90.0   45.2   61.3    0    0    8    0    0   11  0.000  0.000  0.002  0.006  0.000  0.000
 End Juvenil-Floral Init    8  29.0  19.4  24.2  14.5  24.00  341.0  110.8   30.6   30.6    0    0    1    0    0    7  0.000  0.000  0.000  0.001  0.000  0.000
 Floral Init-End Lf Grow   40  30.3  19.0  24.7  16.2  24.00  341.0   67.8  139.0  156.6    0    0   19    3    1   13  0.098  0.124  0.000  0.000  0.000  0.000
 End Lf Grth-Beg Grn Fil   10  31.4  18.5  25.0  18.4  24.00  341.1   30.3   27.7   44.0    0    0   10    1    0    3  0.418  0.503  0.000  0.000  0.000  0.000
 Grain Filling Phase       48  33.1  18.4  25.8  19.9  24.00  341.1   35.5   54.0  247.4    0    0   46   35   16    9  0.798  0.826  0.000  0.000  0.000  0.000


 Planting to Harvest      132  31.4  18.9  25.1  17.2  23.95  341.0  349.1  307.8  580.3    0    0   92   42   18   48  0.366  0.391  0.000  0.001  0.000  0.000
----------------------------------------------------------------------------------------------------------------------------------------------------------------


*Resource Productivity
 Growing season length: 132 days 

 Precipitation during growing season       349.1 mm[rain]
   Dry Matter Productivity                  2.99 kg[DM]/m3[rain]          =   29.9 kg[DM]/ha per mm[rain]
   Yield Productivity                       0.84 kg[grain yield]/m3[rain] =    8.4 kg[yield]/ha per mm[rain]

 Evapotranspiration during growing season  307.8 mm[ET]
   Dry Matter Productivity                  3.39 kg[DM]/m3[ET]            =   33.9 kg[DM]/ha per mm[ET]
   Yield Productivity                       0.95 kg[grain yield]/m3[ET]   =    9.5 kg[yield]/ha per mm[ET]

 Transpiration during growing season       166.9 mm[EP]
   Dry Matter Productivity                  6.25 kg[DM]/m3[EP]            =   62.5 kg[DM]/ha per mm[EP]
   Yield Productivity                       1.75 kg[grain yield]/m3[EP]   =   17.5 kg[yield]/ha per mm[EP]

 N applied during growing season            161. kg[N applied]/ha
   Dry Matter Productivity                  64.8 kg[DM]/kg[N applied]
   Yield Productivity                       18.1 kg[yield]/kg[N applied]

 N uptake during growing season              180 kg[N uptake]/ha
   Dry Matter Productivity                  57.9 kg[DM]/kg[N uptake]
   Yield Productivity                       16.2 kg[yield]/kg[N uptake]

--------------------------------------------------------------------------------------------------------------

                     Maize YIELD :     2920 kg/ha    [Dry weight] 

**************************************************************************************************************

*DSSAT Cropping System Model Ver. 4.6.1.000 -release      OCT 02, 2017; 13:16:26
                                                                                
*RUN   6        : P04/27                    MZCER046 ANBU1982    6              
 MODEL          : MZCER046 - Maize                                              
 EXPERIMENT     : ANBU1982 MZ  Analisis a침os de bajo rendimiento Buga          
 DATA PATH      : C:\DSSAT46\maize\                                             
 TREATMENT  6   : P04/27                    MZCER046                            
                                                                                
                                                                                
 CROP           : Maize            CULTIVAR : DK234            ECOTYPE :IB0001  
 STARTING DATE  : MAR 28 1982                                                   
 PLANTING DATE  : APR 27 1982        PLANTS/m2 :  6.2     ROW SPACING :  80.cm  
 WEATHER        : CUNI   1982                                                   
 SOIL           : CCBUGA2017     TEXTURE : CL    -   Suelo Buga MADR Fase I     
 SOIL INITIAL C : DEPTH: 90cm EXTR. H2O: 83.9mm  NO3:151.4kg/ha  NH4: 62.4kg/ha 
 WATER BALANCE  : RAINFED                                                       
 IRRIGATION     : NOT IRRIGATED                                                 
 NITROGEN BAL.  : SOIL-N & N-UPTAKE SIMULATION; NO N-FIXATION                   
 N-FERTILIZER   :      161 kg/ha IN     5 APPLICATIONS                          
 RESIDUE/MANURE : INITIAL :     0 kg/ha ;       0 kg/ha IN     0 APPLICATIONS   
 ENVIRONM. OPT. : DAYL=    0.00  SRAD=    0.00  TMAX=    0.00  TMIN=    0.00    
                  RAIN=    0.00  CO2 =    0.00  DEW =    0.00  WIND=    0.00    
 SIMULATION OPT : WATER   :Y  NITROGEN:Y  N-FIX:N  PHOSPH :N  PESTS  :N         
                  PHOTO   :C  ET      :R  INFIL:S  HYDROL :R  SOM    :G         
                  CO2 341ppm  NSWIT   :1  EVAP :S  SOIL   :2  STEMP  :D         
 MANAGEMENT OPT : PLANTING:R  IRRIG   :N  FERT :D  RESIDUE:R  HARVEST:M         
                  WEATHER :M  TILLAGE :N                                        
                                                                                
*SUMMARY OF SOIL AND GENETIC INPUT PARAMETERS                                   
                                                                                
   SOIL LOWER UPPER   SAT  EXTR  INIT   ROOT   BULK     pH    NO3    NH4    ORG 
  DEPTH LIMIT LIMIT    SW    SW    SW   DIST   DENS                          C  
   cm   cm3/cm3    cm3/cm3    cm3/cm3         g/cm3         ugN/g  ugN/g     %  
------------------------------------------------------------------------------- 
  0-  5 0.215 0.331 0.341 0.116 0.319   1.00   1.68   6.70  11.90   4.21   0.75 
  5- 15 0.215 0.331 0.341 0.116 0.319   1.00   1.68   6.70  11.90   4.21   0.75 
 15- 25 0.215 0.331 0.341 0.116 0.319   1.00   1.68   6.70  11.90   4.21   0.75 
 25- 35 0.181 0.291 0.364 0.110 0.331   0.50   1.61   7.20  12.15   4.32   0.53 
 35- 45 0.181 0.291 0.364 0.110 0.344   0.50   1.61   7.20  12.40   4.44   0.53 
 45- 67 0.096 0.169 0.404 0.073 0.290   0.27   1.51   7.00  10.67   4.47   0.05 
 67- 90 0.096 0.169 0.404 0.073 0.195   0.27   1.51   7.00   7.63   4.53   0.05 
                                                                                
TOT- 90  13.3  21.7  34.0   8.4  25.6  <--cm   -  kg/ha-->  151.4   62.4  51964 
SOIL ALBEDO    : 0.09      EVAPORATION LIMIT : 6.00         MIN. FACTOR  : 1.00 
RUNOFF CURVE # :76.00      DRAINAGE RATE     : 0.60         FERT. FACTOR : 1.00 
                                                                                
 Maize      CULTIVAR :CI0002-DK234              ECOTYPE :IB0001                 
 P1     : 300.00  P2     : 0.4000  P5     :1075.00                              
 G2     : 890.00  G3     :  7.750  PHINT  : 40.000                              


*SIMULATED CROP AND SOIL STATUS AT MAIN DEVELOPMENT STAGES

 RUN NO.     6     P04/27                  

        CROP GROWTH     BIOMASS         LEAF   CROP N     STRESS      STRESS                                           
   DATE  AGE STAGE        kg/ha    LAI   NUM  kg/ha  %   H2O  Nitr Phos1 Phos2  RSTG                                   
 ------  --- ----------   -----  -----  ----  ---  ---  ----  ----  ----  ----  ----                                   
 28 MAR    0 Start Sim        0   0.00   0.0    0  0.0  0.00  0.00  0.00  0.00     7
 27 APR    0 Sowing           0   0.00   0.0    0  0.0  0.00  0.00  0.00  0.00     8
 28 APR    1 Germinate        0   0.00   0.0    0  0.0  0.00  0.00  0.00  0.00     9
  3 MAY    6 Emergence       25   0.00   2.2    1  4.4  0.00  0.01  0.00  0.00     1
 20 MAY   23 End Juveni     183   0.36  10.1    7  3.6  0.01  0.00  0.00  0.00     2
 28 MAY   31 Floral Ini     590   0.95  13.3   21  3.6  0.00  0.00  0.00  0.00     3
  7 JUL   71 75% Silkin    7677   3.40  27.5  160  2.1  0.19  0.00  0.00  0.00     4
 17 JUL   81 Beg Gr Fil    8368   2.52  27.5  160  1.9  0.69  0.00  0.00  0.00     5
  2 SEP  128 End Gr Fil    9785   0.39  27.5  160  1.6  0.82  0.00  0.00  0.00     6
  5 SEP  131 Maturity      9785   0.39  27.5  160  1.6  1.00  0.00  0.00  0.00    10
  5 SEP  131 Harvest       9785   0.39  27.5  160  1.6  0.00  0.00  0.00  0.00    10


*MAIN GROWTH AND DEVELOPMENT VARIABLES

@     VARIABLE                                         SIMULATED     MEASURED
      --------                                         ---------     --------
      Anthesis day (dap)                                      71          -99
      Physiological maturity day (dap)                       131          -99
      Yield at harvest maturity (kg [dm]/ha)                2698          -99
      Number at maturity (no/m2)                            1656          -99
      Unit wt at maturity (g [dm]/unit)                   0.1629          -99
      Number at maturity (no/unit)                         267.1          -99
      Tops weight at maturity (kg [dm]/ha)                  9785          -99
      By-product produced (stalk) at maturity (kg[dm]/ha    7165          -99
      Leaf area index, maximum                              4.18          -99
      Harvest index at maturity                            0.276          -99
      Grain N at maturity (kg/ha)                             50          -99
      Tops N at maturity (kg/ha)                             160          -99
      Stem N at maturity (kg/ha)                             110          -99
      Grain N at maturity (%)                                1.9          -99
      Tops weight at anthesis (kg [dm]/ha)                  7409          -99
      Tops N at anthesis (kg/ha)                             160          -99
      Leaf number per stem at maturity                     27.54          -99
      Emergence day (dap)                                      6          -99


*ENVIRONMENTAL AND STRESS FACTORS

 |-----Development Phase------|--------------------------------------Environment--------------------------------------|-----------------Stress-----------------|
                              |---------------Average--------------|-----Cumulative-----|--------Count of days--------|          (0=Min, 1=Max Stress)         |
                         Time  Temp  Temp  Temp Solar Photop                Evapo    Pot TMIN TMIN TMAX TMAX TMAX RAIN|----Water----|---Nitrogen--|-Phosphorus-|
                         Span   Max   Min  Mean   Rad  [day]    CO2   Rain  Trans     ET   <    <    >    >    >    >   Photo         Photo         Photo
                         days    邂    邂    邂 MJ/m2     hr    ppm     mm     mm     mm  0邂  2邂 30邂 32邂 34邂  0mm  synth Growth  synth Growth  synth Growth
----------------------------------------------------------------------------------------------------------------------------------------------------------------
 Emergence-End Juvenile    17  29.9  19.7  24.8  13.9  24.00  340.9   91.0   52.9   65.6    0    0    7    0    0   11  0.000  0.005  0.002  0.005  0.000  0.000
 End Juvenil-Floral Init    8  28.7  19.5  24.1  15.0  24.00  341.0   63.7   31.5   31.5    0    0    0    0    0    6  0.000  0.000  0.000  0.001  0.000  0.000
 Floral Init-End Lf Grow   40  30.5  18.9  24.7  16.4  24.00  341.0   76.2  130.1  158.4    0    0   24    3    1   12  0.154  0.187  0.000  0.000  0.000  0.000
 End Lf Grth-Beg Grn Fil   10  31.8  18.4  25.1  18.7  24.00  341.1    5.0   23.9   45.0    0    0    9    4    0    2  0.505  0.597  0.000  0.000  0.000  0.000
 Grain Filling Phase       47  33.3  18.4  25.8  19.7  23.78  341.1   45.2   50.9  241.6    0    0   46   35   18    9  0.791  0.816  0.000  0.000  0.000  0.000


 Planting to Harvest      131  31.5  18.8  25.2  17.2  23.80  341.0  346.7  305.1  578.4    0    0   92   45   20   45  0.392  0.419  0.000  0.001  0.000  0.000
----------------------------------------------------------------------------------------------------------------------------------------------------------------


*Resource Productivity
 Growing season length: 131 days 

 Precipitation during growing season       346.7 mm[rain]
   Dry Matter Productivity                  2.82 kg[DM]/m3[rain]          =   28.2 kg[DM]/ha per mm[rain]
   Yield Productivity                       0.78 kg[grain yield]/m3[rain] =    7.8 kg[yield]/ha per mm[rain]

 Evapotranspiration during growing season  305.1 mm[ET]
   Dry Matter Productivity                  3.21 kg[DM]/m3[ET]            =   32.1 kg[DM]/ha per mm[ET]
   Yield Productivity                       0.88 kg[grain yield]/m3[ET]   =    8.8 kg[yield]/ha per mm[ET]

 Transpiration during growing season       155.2 mm[EP]
   Dry Matter Productivity                  6.31 kg[DM]/m3[EP]            =   63.1 kg[DM]/ha per mm[EP]
   Yield Productivity                       1.74 kg[grain yield]/m3[EP]   =   17.4 kg[yield]/ha per mm[EP]

 N applied during growing season            161. kg[N applied]/ha
   Dry Matter Productivity                  60.8 kg[DM]/kg[N applied]
   Yield Productivity                       16.8 kg[yield]/kg[N applied]

 N uptake during growing season              172 kg[N uptake]/ha
   Dry Matter Productivity                  56.9 kg[DM]/kg[N uptake]
   Yield Productivity                       15.7 kg[yield]/kg[N uptake]

--------------------------------------------------------------------------------------------------------------

                     Maize YIELD :     2698 kg/ha    [Dry weight] 

**************************************************************************************************************

*DSSAT Cropping System Model Ver. 4.6.1.000 -release      OCT 02, 2017; 13:16:26
                                                                                
*RUN   7        : P05/02                    MZCER046 ANBU1982    7              
 MODEL          : MZCER046 - Maize                                              
 EXPERIMENT     : ANBU1982 MZ  Analisis a침os de bajo rendimiento Buga          
 DATA PATH      : C:\DSSAT46\maize\                                             
 TREATMENT  7   : P05/02                    MZCER046                            
                                                                                
                                                                                
 CROP           : Maize            CULTIVAR : DK234            ECOTYPE :IB0001  
 STARTING DATE  : APR  2 1982                                                   
 PLANTING DATE  : MAY  2 1982        PLANTS/m2 :  6.2     ROW SPACING :  80.cm  
 WEATHER        : CUNI   1982                                                   
 SOIL           : CCBUGA2017     TEXTURE : CL    -   Suelo Buga MADR Fase I     
 SOIL INITIAL C : DEPTH: 90cm EXTR. H2O: 83.9mm  NO3:151.4kg/ha  NH4: 62.4kg/ha 
 WATER BALANCE  : RAINFED                                                       
 IRRIGATION     : NOT IRRIGATED                                                 
 NITROGEN BAL.  : SOIL-N & N-UPTAKE SIMULATION; NO N-FIXATION                   
 N-FERTILIZER   :      161 kg/ha IN     5 APPLICATIONS                          
 RESIDUE/MANURE : INITIAL :     0 kg/ha ;       0 kg/ha IN     0 APPLICATIONS   
 ENVIRONM. OPT. : DAYL=    0.00  SRAD=    0.00  TMAX=    0.00  TMIN=    0.00    
                  RAIN=    0.00  CO2 =    0.00  DEW =    0.00  WIND=    0.00    
 SIMULATION OPT : WATER   :Y  NITROGEN:Y  N-FIX:N  PHOSPH :N  PESTS  :N         
                  PHOTO   :C  ET      :R  INFIL:S  HYDROL :R  SOM    :G         
                  CO2 341ppm  NSWIT   :1  EVAP :S  SOIL   :2  STEMP  :D         
 MANAGEMENT OPT : PLANTING:R  IRRIG   :N  FERT :D  RESIDUE:R  HARVEST:M         
                  WEATHER :M  TILLAGE :N                                        
                                                                                
*SUMMARY OF SOIL AND GENETIC INPUT PARAMETERS                                   
                                                                                
   SOIL LOWER UPPER   SAT  EXTR  INIT   ROOT   BULK     pH    NO3    NH4    ORG 
  DEPTH LIMIT LIMIT    SW    SW    SW   DIST   DENS                          C  
   cm   cm3/cm3    cm3/cm3    cm3/cm3         g/cm3         ugN/g  ugN/g     %  
------------------------------------------------------------------------------- 
  0-  5 0.215 0.331 0.341 0.116 0.319   1.00   1.68   6.70  11.90   4.21   0.75 
  5- 15 0.215 0.331 0.341 0.116 0.319   1.00   1.68   6.70  11.90   4.21   0.75 
 15- 25 0.215 0.331 0.341 0.116 0.319   1.00   1.68   6.70  11.90   4.21   0.75 
 25- 35 0.181 0.291 0.364 0.110 0.331   0.50   1.61   7.20  12.15   4.32   0.53 
 35- 45 0.181 0.291 0.364 0.110 0.344   0.50   1.61   7.20  12.40   4.44   0.53 
 45- 67 0.096 0.169 0.404 0.073 0.290   0.27   1.51   7.00  10.67   4.47   0.05 
 67- 90 0.096 0.169 0.404 0.073 0.195   0.27   1.51   7.00   7.63   4.53   0.05 
                                                                                
TOT- 90  13.3  21.7  34.0   8.4  25.6  <--cm   -  kg/ha-->  151.4   62.4  51964 
SOIL ALBEDO    : 0.09      EVAPORATION LIMIT : 6.00         MIN. FACTOR  : 1.00 
RUNOFF CURVE # :76.00      DRAINAGE RATE     : 0.60         FERT. FACTOR : 1.00 
                                                                                
 Maize      CULTIVAR :CI0002-DK234              ECOTYPE :IB0001                 
 P1     : 300.00  P2     : 0.4000  P5     :1075.00                              
 G2     : 890.00  G3     :  7.750  PHINT  : 40.000                              


*SIMULATED CROP AND SOIL STATUS AT MAIN DEVELOPMENT STAGES

 RUN NO.     7     P05/02                  

        CROP GROWTH     BIOMASS         LEAF   CROP N     STRESS      STRESS                                           
   DATE  AGE STAGE        kg/ha    LAI   NUM  kg/ha  %   H2O  Nitr Phos1 Phos2  RSTG                                   
 ------  --- ----------   -----  -----  ----  ---  ---  ----  ----  ----  ----  ----                                   
  2 APR    0 Start Sim        0   0.00   0.0    0  0.0  0.00  0.00  0.00  0.00     7
  2 MAY    0 Sowing           0   0.00   0.0    0  0.0  0.00  0.00  0.00  0.00     8
  3 MAY    1 Germinate        0   0.00   0.0    0  0.0  0.00  0.00  0.00  0.00     9
  8 MAY    6 Emergence       25   0.00   2.1    1  4.4  0.00  0.01  0.00  0.00     1
 25 MAY   23 End Juveni     175   0.35   9.9    6  3.4  0.00  0.00  0.00  0.00     2
  2 JUN   31 Floral Ini     620   0.99  13.3   22  3.6  0.00  0.00  0.00  0.00     3
 11 JUL   70 75% Silkin    7255   3.14  27.5  156  2.2  0.26  0.00  0.00  0.00     4
 21 JUL   80 Beg Gr Fil    7473   2.15  27.5  156  2.1  0.79  0.00  0.00  0.00     5
  7 SEP  128 End Gr Fil    8709   0.32  27.5  156  1.8  0.82  0.00  0.00  0.00     6
 10 SEP  131 Maturity      8709   0.32  27.5  156  1.8  1.00  0.00  0.00  0.00    10
 10 SEP  131 Harvest       8709   0.32  27.5  156  1.8  0.00  0.00  0.00  0.00    10


*MAIN GROWTH AND DEVELOPMENT VARIABLES

@     VARIABLE                                         SIMULATED     MEASURED
      --------                                         ---------     --------
      Anthesis day (dap)                                      70          -99
      Physiological maturity day (dap)                       131          -99
      Yield at harvest maturity (kg [dm]/ha)                2116          -99
      Number at maturity (no/m2)                            1014          -99
      Unit wt at maturity (g [dm]/unit)                   0.2088          -99
      Number at maturity (no/unit)                         163.5          -99
      Tops weight at maturity (kg [dm]/ha)                  8709          -99
      By-product produced (stalk) at maturity (kg[dm]/ha    6667          -99
      Leaf area index, maximum                              3.91          -99
      Harvest index at maturity                            0.243          -99
      Grain N at maturity (kg/ha)                             39          -99
      Tops N at maturity (kg/ha)                             156          -99
      Stem N at maturity (kg/ha)                             117          -99
      Grain N at maturity (%)                                1.9          -99
      Tops weight at anthesis (kg [dm]/ha)                  7206          -99
      Tops N at anthesis (kg/ha)                             156          -99
      Leaf number per stem at maturity                     27.50          -99
      Emergence day (dap)                                      6          -99


*ENVIRONMENTAL AND STRESS FACTORS

 |-----Development Phase------|--------------------------------------Environment--------------------------------------|-----------------Stress-----------------|
                              |---------------Average--------------|-----Cumulative-----|--------Count of days--------|          (0=Min, 1=Max Stress)         |
                         Time  Temp  Temp  Temp Solar Photop                Evapo    Pot TMIN TMIN TMAX TMAX TMAX RAIN|----Water----|---Nitrogen--|-Phosphorus-|
                         Span   Max   Min  Mean   Rad  [day]    CO2   Rain  Trans     ET   <    <    >    >    >    >   Photo         Photo         Photo
                         days    邂    邂    邂 MJ/m2     hr    ppm     mm     mm     mm  0邂  2邂 30邂 32邂 34邂  0mm  synth Growth  synth Growth  synth Growth
----------------------------------------------------------------------------------------------------------------------------------------------------------------
 Emergence-End Juvenile    17  29.3  19.6  24.4  14.8  24.00  340.9  135.5   57.8   69.1    0    0    4    0    0   12  0.000  0.001  0.002  0.005  0.000  0.000
 End Juvenil-Floral Init    8  29.4  19.6  24.5  13.9  24.00  341.0   17.6   26.6   29.5    0    0    1    0    0    3  0.000  0.000  0.000  0.000  0.000  0.000
 Floral Init-End Lf Grow   39  30.8  18.8  24.8  16.9  24.00  341.0   64.8  125.1  159.3    0    0   27    4    1   11  0.189  0.236  0.000  0.000  0.000  0.000
 End Lf Grth-Beg Grn Fil   10  31.9  18.3  25.1  18.0  24.00  341.1    5.0   15.7   43.6    0    0    9    5    0    2  0.717  0.779  0.000  0.000  0.000  0.000
 Grain Filling Phase       48  33.5  18.4  26.0  19.7  23.20  341.2   45.2   51.8  249.6    0    0   47   38   21    9  0.794  0.821  0.000  0.000  0.000  0.000


 Planting to Harvest      131  31.7  18.8  25.2  17.5  23.54  341.1  304.9  299.7  589.6    0    0   94   50   24   42  0.425  0.454  0.000  0.001  0.000  0.000
----------------------------------------------------------------------------------------------------------------------------------------------------------------


*Resource Productivity
 Growing season length: 131 days 

 Precipitation during growing season       304.9 mm[rain]
   Dry Matter Productivity                  2.86 kg[DM]/m3[rain]          =   28.6 kg[DM]/ha per mm[rain]
   Yield Productivity                       0.69 kg[grain yield]/m3[rain] =    6.9 kg[yield]/ha per mm[rain]

 Evapotranspiration during growing season  299.7 mm[ET]
   Dry Matter Productivity                  2.91 kg[DM]/m3[ET]            =   29.1 kg[DM]/ha per mm[ET]
   Yield Productivity                       0.71 kg[grain yield]/m3[ET]   =    7.1 kg[yield]/ha per mm[ET]

 Transpiration during growing season       143.1 mm[EP]
   Dry Matter Productivity                  6.09 kg[DM]/m3[EP]            =   60.9 kg[DM]/ha per mm[EP]
   Yield Productivity                       1.48 kg[grain yield]/m3[EP]   =   14.8 kg[yield]/ha per mm[EP]

 N applied during growing season            161. kg[N applied]/ha
   Dry Matter Productivity                  54.1 kg[DM]/kg[N applied]
   Yield Productivity                       13.1 kg[yield]/kg[N applied]

 N uptake during growing season              168 kg[N uptake]/ha
   Dry Matter Productivity                  51.8 kg[DM]/kg[N uptake]
   Yield Productivity                       12.6 kg[yield]/kg[N uptake]

--------------------------------------------------------------------------------------------------------------

                     Maize YIELD :     2116 kg/ha    [Dry weight] 

**************************************************************************************************************

*DSSAT Cropping System Model Ver. 4.6.1.000 -release      OCT 02, 2017; 13:16:26
                                                                                
*RUN   8        : P05/07                    MZCER046 ANBU1982    8              
 MODEL          : MZCER046 - Maize                                              
 EXPERIMENT     : ANBU1982 MZ  Analisis a침os de bajo rendimiento Buga          
 DATA PATH      : C:\DSSAT46\maize\                                             
 TREATMENT  8   : P05/07                    MZCER046                            
                                                                                
                                                                                
 CROP           : Maize            CULTIVAR : DK234            ECOTYPE :IB0001  
 STARTING DATE  : APR  7 1982                                                   
 PLANTING DATE  : MAY  7 1982        PLANTS/m2 :  6.2     ROW SPACING :  80.cm  
 WEATHER        : CUNI   1982                                                   
 SOIL           : CCBUGA2017     TEXTURE : CL    -   Suelo Buga MADR Fase I     
 SOIL INITIAL C : DEPTH: 90cm EXTR. H2O: 83.9mm  NO3:151.4kg/ha  NH4: 62.4kg/ha 
 WATER BALANCE  : RAINFED                                                       
 IRRIGATION     : NOT IRRIGATED                                                 
 NITROGEN BAL.  : SOIL-N & N-UPTAKE SIMULATION; NO N-FIXATION                   
 N-FERTILIZER   :      161 kg/ha IN     5 APPLICATIONS                          
 RESIDUE/MANURE : INITIAL :     0 kg/ha ;       0 kg/ha IN     0 APPLICATIONS   
 ENVIRONM. OPT. : DAYL=    0.00  SRAD=    0.00  TMAX=    0.00  TMIN=    0.00    
                  RAIN=    0.00  CO2 =    0.00  DEW =    0.00  WIND=    0.00    
 SIMULATION OPT : WATER   :Y  NITROGEN:Y  N-FIX:N  PHOSPH :N  PESTS  :N         
                  PHOTO   :C  ET      :R  INFIL:S  HYDROL :R  SOM    :G         
                  CO2 341ppm  NSWIT   :1  EVAP :S  SOIL   :2  STEMP  :D         
 MANAGEMENT OPT : PLANTING:R  IRRIG   :N  FERT :D  RESIDUE:R  HARVEST:M         
                  WEATHER :M  TILLAGE :N                                        
                                                                                
*SUMMARY OF SOIL AND GENETIC INPUT PARAMETERS                                   
                                                                                
   SOIL LOWER UPPER   SAT  EXTR  INIT   ROOT   BULK     pH    NO3    NH4    ORG 
  DEPTH LIMIT LIMIT    SW    SW    SW   DIST   DENS                          C  
   cm   cm3/cm3    cm3/cm3    cm3/cm3         g/cm3         ugN/g  ugN/g     %  
------------------------------------------------------------------------------- 
  0-  5 0.215 0.331 0.341 0.116 0.319   1.00   1.68   6.70  11.90   4.21   0.75 
  5- 15 0.215 0.331 0.341 0.116 0.319   1.00   1.68   6.70  11.90   4.21   0.75 
 15- 25 0.215 0.331 0.341 0.116 0.319   1.00   1.68   6.70  11.90   4.21   0.75 
 25- 35 0.181 0.291 0.364 0.110 0.331   0.50   1.61   7.20  12.15   4.32   0.53 
 35- 45 0.181 0.291 0.364 0.110 0.344   0.50   1.61   7.20  12.40   4.44   0.53 
 45- 67 0.096 0.169 0.404 0.073 0.290   0.27   1.51   7.00  10.67   4.47   0.05 
 67- 90 0.096 0.169 0.404 0.073 0.195   0.27   1.51   7.00   7.63   4.53   0.05 
                                                                                
TOT- 90  13.3  21.7  34.0   8.4  25.6  <--cm   -  kg/ha-->  151.4   62.4  51964 
SOIL ALBEDO    : 0.09      EVAPORATION LIMIT : 6.00         MIN. FACTOR  : 1.00 
RUNOFF CURVE # :76.00      DRAINAGE RATE     : 0.60         FERT. FACTOR : 1.00 
                                                                                
 Maize      CULTIVAR :CI0002-DK234              ECOTYPE :IB0001                 
 P1     : 300.00  P2     : 0.4000  P5     :1075.00                              
 G2     : 890.00  G3     :  7.750  PHINT  : 40.000                              


*SIMULATED CROP AND SOIL STATUS AT MAIN DEVELOPMENT STAGES

 RUN NO.     8     P05/07                  

        CROP GROWTH     BIOMASS         LEAF   CROP N     STRESS      STRESS                                           
   DATE  AGE STAGE        kg/ha    LAI   NUM  kg/ha  %   H2O  Nitr Phos1 Phos2  RSTG                                   
 ------  --- ----------   -----  -----  ----  ---  ---  ----  ----  ----  ----  ----                                   
  7 APR    0 Start Sim        0   0.00   0.0    0  0.0  0.00  0.00  0.00  0.00     7
  7 MAY    0 Sowing           0   0.00   0.0    0  0.0  0.00  0.00  0.00  0.00     8
  8 MAY    1 Germinate        0   0.00   0.0    0  0.0  0.00  0.00  0.00  0.00     9
 13 MAY    6 Emergence       25   0.00   2.2    1  4.4  0.00  0.01  0.00  0.00     1
 31 MAY   24 End Juveni     216   0.42  10.3    7  3.3  0.01  0.00  0.00  0.00     2
  8 JUN   32 Floral Ini     846   1.27  13.7   30  3.6  0.00  0.00  0.00  0.00     3
 18 JUL   72 75% Silkin    6863   2.74  28.4  158  2.3  0.36  0.00  0.00  0.00     4
 28 JUL   82 Beg Gr Fil    6570   1.71  28.4  158  2.4  0.95  0.00  0.00  0.00     5
  Crop mature on JD 252 due to slowed grain filling
[...]
 NITROGEN BAL.  : SOIL-N & N-UPTAKE SIMULATION; NO N-FIXATION                   
 N-FERTILIZER   :      161 kg/ha IN     5 APPLICATIONS                          
 RESIDUE/MANURE : INITIAL :     0 kg/ha ;       0 kg/ha IN     0 APPLICATIONS   
 ENVIRONM. OPT. : DAYL=    0.00  SRAD=    0.00  TMAX=    0.00  TMIN=    0.00    
                  RAIN=    0.00  CO2 =    0.00  DEW =    0.00  WIND=    0.00    
 SIMULATION OPT : WATER   :Y  NITROGEN:Y  N-FIX:N  PHOSPH :N  PESTS  :N         
                  PHOTO   :C  ET      :R  INFIL:S  HYDROL :R  SOM    :G         
                  CO2 341ppm  NSWIT   :1  EVAP :S  SOIL   :2  STEMP  :D         
 MANAGEMENT OPT : PLANTING:R  IRRIG   :N  FERT :D  RESIDUE:R  HARVEST:M         
                  WEATHER :M  TILLAGE :N                                        
                                                                                
*SUMMARY OF SOIL AND GENETIC INPUT PARAMETERS                                   
                                                                                
   SOIL LOWER UPPER   SAT  EXTR  INIT   ROOT   BULK     pH    NO3    NH4    ORG 
  DEPTH LIMIT LIMIT    SW    SW    SW   DIST   DENS                          C  
   cm   cm3/cm3    cm3/cm3    cm3/cm3         g/cm3         ugN/g  ugN/g     %  
------------------------------------------------------------------------------- 
  0-  5 0.215 0.331 0.341 0.116 0.319   1.00   1.68   6.70  11.90   4.21   0.75 
  5- 15 0.215 0.331 0.341 0.116 0.319   1.00   1.68   6.70  11.90   4.21   0.75 
 15- 25 0.215 0.331 0.341 0.116 0.319   1.00   1.68   6.70  11.90   4.21   0.75 
 25- 35 0.181 0.291 0.364 0.110 0.331   0.50   1.61   7.20  12.15   4.32   0.53 
 35- 45 0.181 0.291 0.364 0.110 0.344   0.50   1.61   7.20  12.40   4.44   0.53 
 45- 67 0.096 0.169 0.404 0.073 0.290   0.27   1.51   7.00  10.67   4.47   0.05 
 67- 90 0.096 0.169 0.404 0.073 0.195   0.27   1.51   7.00   7.63   4.53   0.05 
                                                                                
TOT- 90  13.3  21.7  34.0   8.4  25.6  <--cm   -  kg/ha-->  151.4   62.4  51964 
SOIL ALBEDO    : 0.09      EVAPORATION LIMIT : 6.00         MIN. FACTOR  : 1.00 
RUNOFF CURVE # :76.00      DRAINAGE RATE     : 0.60         FERT. FACTOR : 1.00 
                                                                                
 Maize      CULTIVAR :CI0002-DK234              ECOTYPE :IB0001                 
 P1     : 300.00  P2     : 0.4000  P5     :1075.00                              
 G2     : 890.00  G3     :  7.750  PHINT  : 40.000                              


*SIMULATED CROP AND SOIL STATUS AT MAIN DEVELOPMENT STAGES

 RUN NO.    35     P12/14                  

        CROP GROWTH     BIOMASS         LEAF   CROP N     STRESS      STRESS                                           
   DATE  AGE STAGE        kg/ha    LAI   NUM  kg/ha  %   H2O  Nitr Phos1 Phos2  RSTG                                   
 ------  --- ----------   -----  -----  ----  ---  ---  ----  ----  ----  ----  ----                                   
 14 NOV    0 Start Sim        0   0.00   0.0    0  0.0  0.00  0.00  0.00  0.00     7
 14 DEC    0 Sowing           0   0.00   0.0    0  0.0  0.00  0.00  0.00  0.00     8
 15 DEC    1 Germinate        0   0.00   0.0    0  0.0  0.00  0.00  0.00  0.00     9
 20 DEC    6 Emergence       25   0.00   2.2    1  4.4  0.00  0.01  0.00  0.00     1
  6 JAN   23 End Juveni     306   0.56  10.2   10  3.1  0.00  0.00  0.00  0.00     2
 10 JAN   27 Floral Ini     667   1.06  12.1   24  3.7  0.04  0.00  0.00  0.00     3
 11 FEB   59 75% Silkin    2875   1.21  25.1   70  2.4  0.66  0.00  0.00  0.00     4
 20 FEB   68 Beg Gr Fil    2812   0.81  25.1   70  2.5  0.92  0.00  0.00  0.00     5
  6 APR  113 End Gr Fil    3666   0.20  25.1   70  1.9  0.64  0.00  0.00  0.00     6
  9 APR  116 Maturity      3666   0.20  25.1   70  1.9  0.00  0.00  0.00  0.00    10
  9 APR  116 Harvest       3666   0.20  25.1   70  1.9  0.00  0.00  0.00  0.00    10


*MAIN GROWTH AND DEVELOPMENT VARIABLES

@     VARIABLE                                         SIMULATED     MEASURED
      --------                                         ---------     --------
      Anthesis day (dap)                                      59          -99
      Physiological maturity day (dap)                       116          -99
      Yield at harvest maturity (kg [dm]/ha)                 972          -99
      Number at maturity (no/m2)                             455          -99
      Unit wt at maturity (g [dm]/unit)                   0.2137          -99
      Number at maturity (no/unit)                          85.1          -99
      Tops weight at maturity (kg [dm]/ha)                  3666          -99
      By-product produced (stalk) at maturity (kg[dm]/ha    2738          -99
      Leaf area index, maximum                              1.86          -99
      Harvest index at maturity                            0.265          -99
      Grain N at maturity (kg/ha)                             18          -99
      Tops N at maturity (kg/ha)                              70          -99
      Stem N at maturity (kg/ha)                              50          -99
      Grain N at maturity (%)                                1.8          -99
      Tops weight at anthesis (kg [dm]/ha)                  2863          -99
      Tops N at anthesis (kg/ha)                              70          -99
      Leaf number per stem at maturity                     25.06          -99
      Emergence day (dap)                                      6          -99


*ENVIRONMENTAL AND STRESS FACTORS

 |-----Development Phase------|--------------------------------------Environment--------------------------------------|-----------------Stress-----------------|
                              |---------------Average--------------|-----Cumulative-----|--------Count of days--------|          (0=Min, 1=Max Stress)         |
                         Time  Temp  Temp  Temp Solar Photop                Evapo    Pot TMIN TMIN TMAX TMAX TMAX RAIN|----Water----|---Nitrogen--|-Phosphorus-|
                         Span   Max   Min  Mean   Rad  [day]    CO2   Rain  Trans     ET   <    <    >    >    >    >   Photo         Photo         Photo
                         days    邂    邂    邂 MJ/m2     hr    ppm     mm     mm     mm  0邂  2邂 30邂 32邂 34邂  0mm  synth Growth  synth Growth  synth Growth
----------------------------------------------------------------------------------------------------------------------------------------------------------------
 Emergence-End Juvenile    17  30.8  18.9  24.8  16.0   0.00  341.6    4.1   19.2   74.7    0    0   13    4    0    4  0.000  0.000  0.002  0.005  0.000  0.000
 End Juvenil-Floral Init    4  32.9  19.8  26.4  17.1   0.00  341.6    0.0    8.5   18.4    0    0    4    2    1    0  0.000  0.033  0.001  0.002  0.000  0.000
 Floral Init-End Lf Grow   32  33.7  20.5  27.1  16.9   0.00  341.7   19.2   58.1  139.8    0    0   31   26   16    6  0.500  0.633  0.000  0.000  0.000  0.000
 End Lf Grth-Beg Grn Fil    9  34.2  19.9  27.1  18.6   0.00  341.9    0.0    9.6   44.5    0    0    9    9    5    0  0.861  0.908  0.000  0.000  0.000  0.000
 Grain Filling Phase       45  33.3  21.2  27.2  16.3   8.45  342.0  120.2   60.2  206.8    0    0   42   34   17   13  0.628  0.663  0.000  0.000  0.000  0.000


 Planting to Harvest      116  32.8  20.4  26.6  16.6   3.74  341.8  196.0  175.4  525.1    0    0  102   75   39   27  0.448  0.504  0.000  0.001  0.000  0.000
----------------------------------------------------------------------------------------------------------------------------------------------------------------


*Resource Productivity
 Growing season length: 116 days 

 Precipitation during growing season       196.0 mm[rain]
   Dry Matter Productivity                  1.87 kg[DM]/m3[rain]          =   18.7 kg[DM]/ha per mm[rain]
   Yield Productivity                       0.50 kg[grain yield]/m3[rain] =    5.0 kg[yield]/ha per mm[rain]

 Evapotranspiration during growing season  175.4 mm[ET]
   Dry Matter Productivity                  2.09 kg[DM]/m3[ET]            =   20.9 kg[DM]/ha per mm[ET]
   Yield Productivity                       0.55 kg[grain yield]/m3[ET]   =    5.5 kg[yield]/ha per mm[ET]

 Transpiration during growing season        73.1 mm[EP]
   Dry Matter Productivity                  5.01 kg[DM]/m3[EP]            =   50.1 kg[DM]/ha per mm[EP]
   Yield Productivity                       1.33 kg[grain yield]/m3[EP]   =   13.3 kg[yield]/ha per mm[EP]

 N applied during growing season            161. kg[N applied]/ha
   Dry Matter Productivity                  22.8 kg[DM]/kg[N applied]
   Yield Productivity                        6.0 kg[yield]/kg[N applied]

 N uptake during growing season               76 kg[N uptake]/ha
   Dry Matter Productivity                  48.2 kg[DM]/kg[N uptake]
   Yield Productivity                       12.8 kg[yield]/kg[N uptake]

--------------------------------------------------------------------------------------------------------------

                     Maize YIELD :      972 kg/ha    [Dry weight] 

**************************************************************************************************************

*DSSAT Cropping System Model Ver. 4.6.1.000 -release      OCT 02, 2017; 13:16:30
                                                                                
*RUN  36        : P12/19                    MZCER046 ANBU1982   36              
 MODEL          : MZCER046 - Maize                                              
 EXPERIMENT     : ANBU1982 MZ  Analisis a침os de bajo rendimiento Buga          
 DATA PATH      : C:\DSSAT46\maize\                                             
 TREATMENT 36   : P12/19                    MZCER046                            
                                                                                
                                                                                
 CROP           : Maize            CULTIVAR : DK234            ECOTYPE :IB0001  
 STARTING DATE  : NOV 19 1982                                                   
 PLANTING DATE  : DEC 19 1982        PLANTS/m2 :  6.2     ROW SPACING :  80.cm  
 WEATHER        : CUNI   1982                                                   
 SOIL           : CCBUGA2017     TEXTURE : CL    -   Suelo Buga MADR Fase I     
 SOIL INITIAL C : DEPTH: 90cm EXTR. H2O: 83.9mm  NO3:151.4kg/ha  NH4: 62.4kg/ha 
 WATER BALANCE  : RAINFED                                                       
 IRRIGATION     : NOT IRRIGATED                                                 
 NITROGEN BAL.  : SOIL-N & N-UPTAKE SIMULATION; NO N-FIXATION                   
 N-FERTILIZER   :      161 kg/ha IN     5 APPLICATIONS                          
 RESIDUE/MANURE : INITIAL :     0 kg/ha ;       0 kg/ha IN     0 APPLICATIONS   
 ENVIRONM. OPT. : DAYL=    0.00  SRAD=    0.00  TMAX=    0.00  TMIN=    0.00    
                  RAIN=    0.00  CO2 =    0.00  DEW =    0.00  WIND=    0.00    
 SIMULATION OPT : WATER   :Y  NITROGEN:Y  N-FIX:N  PHOSPH :N  PESTS  :N         
                  PHOTO   :C  ET      :R  INFIL:S  HYDROL :R  SOM    :G         
                  CO2 341ppm  NSWIT   :1  EVAP :S  SOIL   :2  STEMP  :D         
 MANAGEMENT OPT : PLANTING:R  IRRIG   :N  FERT :D  RESIDUE:R  HARVEST:M         
                  WEATHER :M  TILLAGE :N                                        
                                                                                
*SUMMARY OF SOIL AND GENETIC INPUT PARAMETERS                                   
                                                                                
   SOIL LOWER UPPER   SAT  EXTR  INIT   ROOT   BULK     pH    NO3    NH4    ORG 
  DEPTH LIMIT LIMIT    SW    SW    SW   DIST   DENS                          C  
   cm   cm3/cm3    cm3/cm3    cm3/cm3         g/cm3         ugN/g  ugN/g     %  
------------------------------------------------------------------------------- 
  0-  5 0.215 0.331 0.341 0.116 0.319   1.00   1.68   6.70  11.90   4.21   0.75 
  5- 15 0.215 0.331 0.341 0.116 0.319   1.00   1.68   6.70  11.90   4.21   0.75 
 15- 25 0.215 0.331 0.341 0.116 0.319   1.00   1.68   6.70  11.90   4.21   0.75 
 25- 35 0.181 0.291 0.364 0.110 0.331   0.50   1.61   7.20  12.15   4.32   0.53 
 35- 45 0.181 0.291 0.364 0.110 0.344   0.50   1.61   7.20  12.40   4.44   0.53 
 45- 67 0.096 0.169 0.404 0.073 0.290   0.27   1.51   7.00  10.67   4.47   0.05 
 67- 90 0.096 0.169 0.404 0.073 0.195   0.27   1.51   7.00   7.63   4.53   0.05 
                                                                                
TOT- 90  13.3  21.7  34.0   8.4  25.6  <--cm   -  kg/ha-->  151.4   62.4  51964 
SOIL ALBEDO    : 0.09      EVAPORATION LIMIT : 6.00         MIN. FACTOR  : 1.00 
RUNOFF CURVE # :76.00      DRAINAGE RATE     : 0.60         FERT. FACTOR : 1.00 
                                                                                
 Maize      CULTIVAR :CI0002-DK234              ECOTYPE :IB0001                 
 P1     : 300.00  P2     : 0.4000  P5     :1075.00                              
 G2     : 890.00  G3     :  7.750  PHINT  : 40.000                              


*SIMULATED CROP AND SOIL STATUS AT MAIN DEVELOPMENT STAGES

 RUN NO.    36     P12/19                  

        CROP GROWTH     BIOMASS         LEAF   CROP N     STRESS      STRESS                                           
   DATE  AGE STAGE        kg/ha    LAI   NUM  kg/ha  %   H2O  Nitr Phos1 Phos2  RSTG                                   
 ------  --- ----------   -----  -----  ----  ---  ---  ----  ----  ----  ----  ----                                   
 19 NOV    0 Start Sim        0   0.00   0.0    0  0.0  0.00  0.00  0.00  0.00     7
 19 DEC    0 Sowing           0   0.00   0.0    0  0.0  0.00  0.00  0.00  0.00     8
 20 DEC    1 Germinate        0   0.00   0.0    0  0.0  0.00  0.00  0.00  0.00     9
 25 DEC    6 Emergence       25   0.00   2.1    1  4.4  0.00  0.01  0.00  0.00     1
 10 JAN   22 End Juveni     287   0.53   9.9    9  3.3  0.01  0.00  0.00  0.00     2
 14 JAN   26 Floral Ini     608   0.98  11.9   22  3.7  0.00  0.00  0.00  0.00     3
 15 FEB   58 75% Silkin    2778   1.16  24.8   66  2.4  0.67  0.00  0.00  0.00     4
 24 FEB   67 Beg Gr Fil    2683   0.77  24.8   66  2.5  0.92  0.00  0.00  0.00     5
 10 APR  112 End Gr Fil    3615   0.23  24.8   66  1.8  0.56  0.00  0.00  0.00     6
 13 APR  115 Maturity      3615   0.23  24.8   66  1.8  0.00  0.00  0.00  0.00    10
 13 APR  115 Harvest       3615   0.23  24.8   66  1.8  0.00  0.00  0.00  0.00    10


*MAIN GROWTH AND DEVELOPMENT VARIABLES

@     VARIABLE                                         SIMULATED     MEASURED
      --------                                         ---------     --------
      Anthesis day (dap)                                      58          -99
      Physiological maturity day (dap)                       115          -99
      Yield at harvest maturity (kg [dm]/ha)                 933          -99
      Number at maturity (no/m2)                             404          -99
      Unit wt at maturity (g [dm]/unit)                   0.2311          -99
      Number at maturity (no/unit)                          77.8          -99
      Tops weight at maturity (kg [dm]/ha)                  3615          -99
      By-product produced (stalk) at maturity (kg[dm]/ha    2725          -99
      Leaf area index, maximum                              1.82          -99
      Harvest index at maturity                            0.258          -99
      Grain N at maturity (kg/ha)                             17          -99
      Tops N at maturity (kg/ha)                              66          -99
      Stem N at maturity (kg/ha)                              46          -99
      Grain N at maturity (%)                                1.8          -99
      Tops weight at anthesis (kg [dm]/ha)                  2772          -99
      Tops N at anthesis (kg/ha)                              66          -99
      Leaf number per stem at maturity                     24.78          -99
      Emergence day (dap)                                      6          -99


*ENVIRONMENTAL AND STRESS FACTORS

 |-----Development Phase------|--------------------------------------Environment--------------------------------------|-----------------Stress-----------------|
                              |---------------Average--------------|-----Cumulative-----|--------Count of days--------|          (0=Min, 1=Max Stress)         |
                         Time  Temp  Temp  Temp Solar Photop                Evapo    Pot TMIN TMIN TMAX TMAX TMAX RAIN|----Water----|---Nitrogen--|-Phosphorus-|
                         Span   Max   Min  Mean   Rad  [day]    CO2   Rain  Trans     ET   <    <    >    >    >    >   Photo         Photo         Photo
                         days    邂    邂    邂 MJ/m2     hr    ppm     mm     mm     mm  0邂  2邂 30邂 32邂 34邂  0mm  synth Growth  synth Growth  synth Growth
----------------------------------------------------------------------------------------------------------------------------------------------------------------
 Emergence-End Juvenile    16  31.3  18.9  25.1  15.9   0.00  341.6    3.4   16.0   70.0    0    0   13    6    1    2  0.000  0.014  0.002  0.005  0.000  0.000
 End Juvenil-Floral Init    4  32.8  20.4  26.6  16.4   0.00  341.6    0.0    7.3   17.7    0    0    4    3    1    0  0.000  0.000  0.000  0.001  0.000  0.000
 Floral Init-End Lf Grow   32  33.8  20.5  27.1  17.4   0.00  341.8   19.2   60.0  144.7    0    0   31   27   16    6  0.492  0.646  0.000  0.000  0.000  0.000
 End Lf Grth-Beg Grn Fil    9  34.7  20.4  27.6  17.2   0.00  341.9    0.0    7.2   42.2    0    0    9    9    6    0  0.875  0.917  0.000  0.000  0.000  0.000
 Grain Filling Phase       45  32.7  21.1  26.9  15.8  10.07  342.0  173.7   71.8  199.0    0    0   39   30   15   17  0.546  0.579  0.000  0.000  0.000  0.000


 Planting to Harvest      115  32.8  20.4  26.6  16.4   4.46  341.9  197.8  178.0  514.3    0    0  101   75   39   28  0.419  0.480  0.000  0.001  0.000  0.000
----------------------------------------------------------------------------------------------------------------------------------------------------------------


*Resource Productivity
 Growing season length: 115 days 

 Precipitation during growing season       197.8 mm[rain]
   Dry Matter Productivity                  1.83 kg[DM]/m3[rain]          =   18.3 kg[DM]/ha per mm[rain]
   Yield Productivity                       0.47 kg[grain yield]/m3[rain] =    4.7 kg[yield]/ha per mm[rain]

 Evapotranspiration during growing season  178.0 mm[ET]
   Dry Matter Productivity                  2.03 kg[DM]/m3[ET]            =   20.3 kg[DM]/ha per mm[ET]
   Yield Productivity                       0.52 kg[grain yield]/m3[ET]   =    5.2 kg[yield]/ha per mm[ET]

 Transpiration during growing season        74.8 mm[EP]
   Dry Matter Productivity                  4.83 kg[DM]/m3[EP]            =   48.3 kg[DM]/ha per mm[EP]
   Yield Productivity                       1.25 kg[grain yield]/m3[EP]   =   12.5 kg[yield]/ha per mm[EP]

 N applied during growing season            161. kg[N applied]/ha
   Dry Matter Productivity                  22.5 kg[DM]/kg[N applied]
   Yield Productivity                        5.8 kg[yield]/kg[N applied]

 N uptake during growing season               73 kg[N uptake]/ha
   Dry Matter Productivity                  49.5 kg[DM]/kg[N uptake]
   Yield Productivity                       12.8 kg[yield]/kg[N uptake]

--------------------------------------------------------------------------------------------------------------

                     Maize YIELD :      933 kg/ha    [Dry weight] 

**************************************************************************************************************
