*SIMULATION OVERVIEW FILE

*DSSAT Cropping System Model Ver. 4.6.1.000 -release      OCT 02, 2017; 14:05:29
                                                                                
*RUN   1        : P04/02                    MZCER046 ANBU2009    1              
 MODEL          : MZCER046 - Maize                                              
 EXPERIMENT     : ANBU2009 MZ  Analisis a침os de bajo rendimiento Buga          
 DATA PATH      : C:\DSSAT46\maize\                                             
 TREATMENT  1   : P04/02                    MZCER046                            
                                                                                
                                                                                
 CROP           : Maize            CULTIVAR : DK7088           ECOTYPE :IB0001  
 STARTING DATE  : MAR  3 2009                                                   
 PLANTING DATE  : APR  2 2009        PLANTS/m2 :  6.2     ROW SPACING :  80.cm  
 WEATHER        : CUNI   2009                                                   
 SOIL           : CCBUGA2017     TEXTURE : CL    -   Suelo Buga MADR Fase I     
 SOIL INITIAL C : DEPTH: 90cm EXTR. H2O: 83.9mm  NO3:151.4kg/ha  NH4: 62.4kg/ha 
 WATER BALANCE  : RAINFED                                                       
 IRRIGATION     : NOT IRRIGATED                                                 
 NITROGEN BAL.  : SOIL-N & N-UPTAKE SIMULATION; NO N-FIXATION                   
 N-FERTILIZER   :      161 kg/ha IN     5 APPLICATIONS                          
 RESIDUE/MANURE : INITIAL :     0 kg/ha ;       0 kg/ha IN     0 APPLICATIONS   
 ENVIRONM. OPT. : DAYL=    0.00  SRAD=    0.00  TMAX=    0.00  TMIN=    0.00    
                  RAIN=    0.00  CO2 =    0.00  DEW =    0.00  WIND=    0.00    
 SIMULATION OPT : WATER   :Y  NITROGEN:Y  N-FIX:N  PHOSPH :N  PESTS  :N         
                  PHOTO   :C  ET      :R  INFIL:S  HYDROL :R  SOM    :G         
                  CO2 387ppm  NSWIT   :1  EVAP :S  SOIL   :2  STEMP  :D         
 MANAGEMENT OPT : PLANTING:R  IRRIG   :N  FERT :D  RESIDUE:R  HARVEST:M         
                  WEATHER :M  TILLAGE :N                                        
                                                                                
*SUMMARY OF SOIL AND GENETIC INPUT PARAMETERS                                   
                                                                                
   SOIL LOWER UPPER   SAT  EXTR  INIT   ROOT   BULK     pH    NO3    NH4    ORG 
  DEPTH LIMIT LIMIT    SW    SW    SW   DIST   DENS                          C  
   cm   cm3/cm3    cm3/cm3    cm3/cm3         g/cm3         ugN/g  ugN/g     %  
------------------------------------------------------------------------------- 
  0-  5 0.215 0.331 0.341 0.116 0.319   1.00   1.68   6.70  11.90   4.21   0.75 
  5- 15 0.215 0.331 0.341 0.116 0.319   1.00   1.68   6.70  11.90   4.21   0.75 
 15- 25 0.215 0.331 0.341 0.116 0.319   1.00   1.68   6.70  11.90   4.21   0.75 
 25- 35 0.181 0.291 0.364 0.110 0.331   0.50   1.61   7.20  12.15   4.32   0.53 
 35- 45 0.181 0.291 0.364 0.110 0.344   0.50   1.61   7.20  12.40   4.44   0.53 
 45- 67 0.096 0.169 0.404 0.073 0.290   0.27   1.51   7.00  10.67   4.47   0.05 
 67- 90 0.096 0.169 0.404 0.073 0.195   0.27   1.51   7.00   7.63   4.53   0.05 
                                                                                
TOT- 90  13.3  21.7  34.0   8.4  25.6  <--cm   -  kg/ha-->  151.4   62.4  51964 
SOIL ALBEDO    : 0.09      EVAPORATION LIMIT : 6.00         MIN. FACTOR  : 1.00 
RUNOFF CURVE # :76.00      DRAINAGE RATE     : 0.60         FERT. FACTOR : 1.00 
                                                                                
 Maize      CULTIVAR :CI0004-DK7088             ECOTYPE :IB0001                 
 P1     : 229.00  P2     : 0.3000  P5     : 971.00                              
 G2     : 957.00  G3     :  7.500  PHINT  : 45.000                              


*SIMULATED CROP AND SOIL STATUS AT MAIN DEVELOPMENT STAGES

 RUN NO.     1     P04/02                  

        CROP GROWTH     BIOMASS         LEAF   CROP N     STRESS      STRESS                                           
   DATE  AGE STAGE        kg/ha    LAI   NUM  kg/ha  %   H2O  Nitr Phos1 Phos2  RSTG                                   
 ------  --- ----------   -----  -----  ----  ---  ---  ----  ----  ----  ----  ----                                   
  3 MAR    0 Start Sim        0   0.00   0.0    0  0.0  0.00  0.00  0.00  0.00     7
  2 APR    0 Sowing           0   0.00   0.0    0  0.0  0.00  0.00  0.00  0.00     8
  3 APR    1 Germinate        0   0.00   0.0    0  0.0  0.00  0.00  0.00  0.00     9
  8 APR    6 Emergence       25   0.00   2.0    1  4.4  0.00  0.01  0.00  0.00     1
 20 APR   18 End Juveni      82   0.18   7.6    3  3.2  0.00  0.00  0.00  0.00     2
 26 APR   24 Floral Ini     272   0.51  10.1   10  3.6  0.00  0.00  0.00  0.00     3
 31 MAY   59 75% Silkin    5392   2.84  21.1  111  2.1  0.18  0.00  0.00  0.00     4
 10 JUN   69 Beg Gr Fil    7862   2.84  21.1  112  1.4  0.03  0.00  0.00  0.00     5
 26 JUL  115 End Gr Fil   16911   1.44  21.1  220  1.3  0.21  0.00  0.00  0.00     6
 29 JUL  118 Maturity     16911   1.44  21.1  220  1.3  0.90  0.00  0.00  0.00    10
 29 JUL  118 Harvest      16911   1.44  21.1  220  1.3  0.00  0.00  0.00  0.00    10


*MAIN GROWTH AND DEVELOPMENT VARIABLES

@     VARIABLE                                         SIMULATED     MEASURED
      --------                                         ---------     --------
      Anthesis day (dap)                                      59          -99
      Physiological maturity day (dap)                       118          -99
      Yield at harvest maturity (kg [dm]/ha)                9890          -99
      Number at maturity (no/m2)                            3136          -99
      Unit wt at maturity (g [dm]/unit)                   0.3153          -99
      Number at maturity (no/unit)                         505.9          -99
      Tops weight at maturity (kg [dm]/ha)                 16911          -99
      By-product produced (stalk) at maturity (kg[dm]/ha    7076          -99
      Leaf area index, maximum                              3.18          -99
      Harvest index at maturity                            0.585          -99
      Grain N at maturity (kg/ha)                            171          -99
      Tops N at maturity (kg/ha)                             220          -99
      Stem N at maturity (kg/ha)                              49          -99
      Grain N at maturity (%)                                1.7          -99
      Tops weight at anthesis (kg [dm]/ha)                  5163          -99
      Tops N at anthesis (kg/ha)                             109          -99
      Leaf number per stem at maturity                     21.12          -99
      Emergence day (dap)                                      6          -99


*ENVIRONMENTAL AND STRESS FACTORS

 |-----Development Phase------|--------------------------------------Environment--------------------------------------|-----------------Stress-----------------|
                              |---------------Average--------------|-----Cumulative-----|--------Count of days--------|          (0=Min, 1=Max Stress)         |
                         Time  Temp  Temp  Temp Solar Photop                Evapo    Pot TMIN TMIN TMAX TMAX TMAX RAIN|----Water----|---Nitrogen--|-Phosphorus-|
                         Span   Max   Min  Mean   Rad  [day]    CO2   Rain  Trans     ET   <    <    >    >    >    >   Photo         Photo         Photo
                         days    邂    邂    邂 MJ/m2     hr    ppm     mm     mm     mm  0邂  2邂 30邂 32邂 34邂  0mm  synth Growth  synth Growth  synth Growth
----------------------------------------------------------------------------------------------------------------------------------------------------------------
 Emergence-End Juvenile    12  31.4  19.6  25.5  17.0  21.85  386.8   18.3   29.2   57.8    0    0   11    3    0    6  0.000  0.000  0.002  0.005  0.000  0.000
 End Juvenil-Floral Init    6  31.7  19.6  25.6  15.3  24.00  386.9    0.0    8.6   25.3    0    0    4    1    1    0  0.000  0.000  0.001  0.002  0.000  0.000
 Floral Init-End Lf Grow   35  31.4  19.0  25.2  16.1  24.00  387.0   92.4  114.1  140.7    0    0   25   10    1   17  0.123  0.175  0.000  0.000  0.000  0.000
 End Lf Grth-Beg Grn Fil   10  31.7  19.4  25.6  17.7  24.00  387.1   84.2   43.0   43.2    0    0    8    3    1    5  0.000  0.029  0.000  0.000  0.000  0.000
 Grain Filling Phase       46  30.0  18.3  24.2  15.9  24.00  387.3   99.8  146.1  175.3    0    0   20    6    0   11  0.156  0.191  0.000  0.000  0.000  0.000


 Planting to Harvest      118  30.9  18.8  24.9  16.6  23.42  387.1  303.7  355.4  493.4    0    0   75   27    3   40  0.119  0.152  0.000  0.001  0.000  0.000
----------------------------------------------------------------------------------------------------------------------------------------------------------------


*Resource Productivity
 Growing season length: 118 days 

 Precipitation during growing season       303.7 mm[rain]
   Dry Matter Productivity                  5.57 kg[DM]/m3[rain]          =   55.7 kg[DM]/ha per mm[rain]
   Yield Productivity                       3.26 kg[grain yield]/m3[rain] =   32.6 kg[yield]/ha per mm[rain]

 Evapotranspiration during growing season  355.4 mm[ET]
   Dry Matter Productivity                  4.76 kg[DM]/m3[ET]            =   47.6 kg[DM]/ha per mm[ET]
   Yield Productivity                       2.78 kg[grain yield]/m3[ET]   =   27.8 kg[yield]/ha per mm[ET]

 Transpiration during growing season       244.5 mm[EP]
   Dry Matter Productivity                  6.92 kg[DM]/m3[EP]            =   69.2 kg[DM]/ha per mm[EP]
   Yield Productivity                       4.04 kg[grain yield]/m3[EP]   =   40.4 kg[yield]/ha per mm[EP]

 N applied during growing season            161. kg[N applied]/ha
   Dry Matter Productivity                 105.0 kg[DM]/kg[N applied]
   Yield Productivity                       61.4 kg[yield]/kg[N applied]

 N uptake during growing season              233 kg[N uptake]/ha
   Dry Matter Productivity                  72.6 kg[DM]/kg[N uptake]
   Yield Productivity                       42.4 kg[yield]/kg[N uptake]

--------------------------------------------------------------------------------------------------------------

                     Maize YIELD :     9890 kg/ha    [Dry weight] 

**************************************************************************************************************

*DSSAT Cropping System Model Ver. 4.6.1.000 -release      OCT 02, 2017; 14:05:29
                                                                                
*RUN   2        : P04/07                    MZCER046 ANBU2009    2              
 MODEL          : MZCER046 - Maize                                              
 EXPERIMENT     : ANBU2009 MZ  Analisis a침os de bajo rendimiento Buga          
 DATA PATH      : C:\DSSAT46\maize\                                             
 TREATMENT  2   : P04/07                    MZCER046                            
                                                                                
                                                                                
 CROP           : Maize            CULTIVAR : DK7088           ECOTYPE :IB0001  
 STARTING DATE  : MAR  8 2009                                                   
 PLANTING DATE  : APR  7 2009        PLANTS/m2 :  6.2     ROW SPACING :  80.cm  
 WEATHER        : CUNI   2009                                                   
 SOIL           : CCBUGA2017     TEXTURE : CL    -   Suelo Buga MADR Fase I     
 SOIL INITIAL C : DEPTH: 90cm EXTR. H2O: 83.9mm  NO3:151.4kg/ha  NH4: 62.4kg/ha 
 WATER BALANCE  : RAINFED                                                       
 IRRIGATION     : NOT IRRIGATED                                                 
 NITROGEN BAL.  : SOIL-N & N-UPTAKE SIMULATION; NO N-FIXATION                   
 N-FERTILIZER   :      161 kg/ha IN     5 APPLICATIONS                          
 RESIDUE/MANURE : INITIAL :     0 kg/ha ;       0 kg/ha IN     0 APPLICATIONS   
 ENVIRONM. OPT. : DAYL=    0.00  SRAD=    0.00  TMAX=    0.00  TMIN=    0.00    
                  RAIN=    0.00  CO2 =    0.00  DEW =    0.00  WIND=    0.00    
 SIMULATION OPT : WATER   :Y  NITROGEN:Y  N-FIX:N  PHOSPH :N  PESTS  :N         
                  PHOTO   :C  ET      :R  INFIL:S  HYDROL :R  SOM    :G         
                  CO2 387ppm  NSWIT   :1  EVAP :S  SOIL   :2  STEMP  :D         
 MANAGEMENT OPT : PLANTING:R  IRRIG   :N  FERT :D  RESIDUE:R  HARVEST:M         
                  WEATHER :M  TILLAGE :N                                        
                                                                                
*SUMMARY OF SOIL AND GENETIC INPUT PARAMETERS                                   
                                                                                
   SOIL LOWER UPPER   SAT  EXTR  INIT   ROOT   BULK     pH    NO3    NH4    ORG 
  DEPTH LIMIT LIMIT    SW    SW    SW   DIST   DENS                          C  
   cm   cm3/cm3    cm3/cm3    cm3/cm3         g/cm3         ugN/g  ugN/g     %  
------------------------------------------------------------------------------- 
  0-  5 0.215 0.331 0.341 0.116 0.319   1.00   1.68   6.70  11.90   4.21   0.75 
  5- 15 0.215 0.331 0.341 0.116 0.319   1.00   1.68   6.70  11.90   4.21   0.75 
 15- 25 0.215 0.331 0.341 0.116 0.319   1.00   1.68   6.70  11.90   4.21   0.75 
 25- 35 0.181 0.291 0.364 0.110 0.331   0.50   1.61   7.20  12.15   4.32   0.53 
 35- 45 0.181 0.291 0.364 0.110 0.344   0.50   1.61   7.20  12.40   4.44   0.53 
 45- 67 0.096 0.169 0.404 0.073 0.290   0.27   1.51   7.00  10.67   4.47   0.05 
 67- 90 0.096 0.169 0.404 0.073 0.195   0.27   1.51   7.00   7.63   4.53   0.05 
                                                                                
TOT- 90  13.3  21.7  34.0   8.4  25.6  <--cm   -  kg/ha-->  151.4   62.4  51964 
SOIL ALBEDO    : 0.09      EVAPORATION LIMIT : 6.00         MIN. FACTOR  : 1.00 
RUNOFF CURVE # :76.00      DRAINAGE RATE     : 0.60         FERT. FACTOR : 1.00 
                                                                                
 Maize      CULTIVAR :CI0004-DK7088             ECOTYPE :IB0001                 
 P1     : 229.00  P2     : 0.3000  P5     : 971.00                              
 G2     : 957.00  G3     :  7.500  PHINT  : 45.000                              


*SIMULATED CROP AND SOIL STATUS AT MAIN DEVELOPMENT STAGES

 RUN NO.     2     P04/07                  

        CROP GROWTH     BIOMASS         LEAF   CROP N     STRESS      STRESS                                           
   DATE  AGE STAGE        kg/ha    LAI   NUM  kg/ha  %   H2O  Nitr Phos1 Phos2  RSTG                                   
 ------  --- ----------   -----  -----  ----  ---  ---  ----  ----  ----  ----  ----                                   
  8 MAR    0 Start Sim        0   0.00   0.0    0  0.0  0.00  0.00  0.00  0.00     7
  7 APR    0 Sowing           0   0.00   0.0    0  0.0  0.00  0.00  0.00  0.00     8
  8 APR    1 Germinate        0   0.00   0.0    0  0.0  0.00  0.00  0.00  0.00     9
 13 APR    6 Emergence       25   0.00   2.1    1  4.4  0.00  0.01  0.00  0.00     1
 25 APR   18 End Juveni      94   0.20   7.6    3  3.2  0.00  0.00  0.00  0.00     2
  2 MAY   25 Floral Ini     326   0.59  10.5   12  3.6  0.00  0.00  0.00  0.00     3
  7 JUN   61 75% Silkin    6194   3.23  21.9  122  2.0  0.15  0.00  0.00  0.00     4
 18 JUN   72 Beg Gr Fil    8626   3.23  21.9  124  1.4  0.00  0.00  0.00  0.00     5
  3 AUG  118 End Gr Fil   15804   1.40  21.9  201  1.3  0.37  0.00  0.00  0.00     6
  5 AUG  120 Maturity     15804   1.40  21.9  201  1.3  0.97  0.00  0.00  0.00    10
  5 AUG  120 Harvest      15804   1.40  21.9  201  1.3  0.00  0.00  0.00  0.00    10


*MAIN GROWTH AND DEVELOPMENT VARIABLES

@     VARIABLE                                         SIMULATED     MEASURED
      --------                                         ---------     --------
      Anthesis day (dap)                                      61          -99
      Physiological maturity day (dap)                       120          -99
      Yield at harvest maturity (kg [dm]/ha)                8471          -99
      Number at maturity (no/m2)                            2948          -99
      Unit wt at maturity (g [dm]/unit)                   0.2873          -99
      Number at maturity (no/unit)                         475.5          -99
      Tops weight at maturity (kg [dm]/ha)                 15804          -99
      By-product produced (stalk) at maturity (kg[dm]/ha    7394          -99
      Leaf area index, maximum                              3.23          -99
      Harvest index at maturity                            0.536          -99
      Grain N at maturity (kg/ha)                            148          -99
      Tops N at maturity (kg/ha)                             201          -99
      Stem N at maturity (kg/ha)                              53          -99
      Grain N at maturity (%)                                1.8          -99
      Tops weight at anthesis (kg [dm]/ha)                  5942          -99
      Tops N at anthesis (kg/ha)                             122          -99
      Leaf number per stem at maturity                     21.89          -99
      Emergence day (dap)                                      6          -99


*ENVIRONMENTAL AND STRESS FACTORS

 |-----Development Phase------|--------------------------------------Environment--------------------------------------|-----------------Stress-----------------|
                              |---------------Average--------------|-----Cumulative-----|--------Count of days--------|          (0=Min, 1=Max Stress)         |
                         Time  Temp  Temp  Temp Solar Photop                Evapo    Pot TMIN TMIN TMAX TMAX TMAX RAIN|----Water----|---Nitrogen--|-Phosphorus-|
                         Span   Max   Min  Mean   Rad  [day]    CO2   Rain  Trans     ET   <    <    >    >    >    >   Photo         Photo         Photo
                         days    邂    邂    邂 MJ/m2     hr    ppm     mm     mm     mm  0邂  2邂 30邂 32邂 34邂  0mm  synth Growth  synth Growth  synth Growth
----------------------------------------------------------------------------------------------------------------------------------------------------------------
 Emergence-End Juvenile    12  31.7  19.5  25.6  16.4  23.74  386.9    8.2   18.3   55.8    0    0   10    3    0    2  0.000  0.000  0.002  0.004  0.000  0.000
 End Juvenil-Floral Init    7  31.7  20.0  25.9  17.1  24.00  386.9   37.1   17.8   33.3    0    0    4    4    2    5  0.000  0.000  0.001  0.001  0.000  0.000
 Floral Init-End Lf Grow   36  31.5  18.8  25.2  16.4  24.00  387.0   95.0  127.0  146.6    0    0   27   10    1   15  0.094  0.146  0.000  0.000  0.000  0.000
 End Lf Grth-Beg Grn Fil   11  30.0  19.1  24.5  15.8  24.00  387.1   71.7   41.1   41.3    0    0    5    0    0    6  0.000  0.000  0.000  0.000  0.000  0.000
 Grain Filling Phase       46  30.6  18.1  24.4  16.4  24.00  387.3   72.6  126.1  180.6    0    0   24   12    2    7  0.304  0.345  0.000  0.000  0.000  0.000


 Planting to Harvest      120  31.0  18.8  24.9  16.4  23.73  387.1  303.7  348.1  495.0    0    0   76   31    7   40  0.161  0.192  0.000  0.001  0.000  0.000
----------------------------------------------------------------------------------------------------------------------------------------------------------------


*Resource Productivity
 Growing season length: 120 days 

 Precipitation during growing season       303.7 mm[rain]
   Dry Matter Productivity                  5.20 kg[DM]/m3[rain]          =   52.0 kg[DM]/ha per mm[rain]
   Yield Productivity                       2.79 kg[grain yield]/m3[rain] =   27.9 kg[yield]/ha per mm[rain]

 Evapotranspiration during growing season  348.1 mm[ET]
   Dry Matter Productivity                  4.54 kg[DM]/m3[ET]            =   45.4 kg[DM]/ha per mm[ET]
   Yield Productivity                       2.43 kg[grain yield]/m3[ET]   =   24.3 kg[yield]/ha per mm[ET]

 Transpiration during growing season       238.7 mm[EP]
   Dry Matter Productivity                  6.62 kg[DM]/m3[EP]            =   66.2 kg[DM]/ha per mm[EP]
   Yield Productivity                       3.55 kg[grain yield]/m3[EP]   =   35.5 kg[yield]/ha per mm[EP]

 N applied during growing season            161. kg[N applied]/ha
   Dry Matter Productivity                  98.2 kg[DM]/kg[N applied]
   Yield Productivity                       52.6 kg[yield]/kg[N applied]

 N uptake during growing season              217 kg[N uptake]/ha
   Dry Matter Productivity                  72.8 kg[DM]/kg[N uptake]
   Yield Productivity                       39.0 kg[yield]/kg[N uptake]

--------------------------------------------------------------------------------------------------------------

                     Maize YIELD :     8471 kg/ha    [Dry weight] 

**************************************************************************************************************

*DSSAT Cropping System Model Ver. 4.6.1.000 -release      OCT 02, 2017; 14:05:29
                                                                                
*RUN   3        : P04/12                    MZCER046 ANBU2009    3              
 MODEL          : MZCER046 - Maize                                              
 EXPERIMENT     : ANBU2009 MZ  Analisis a침os de bajo rendimiento Buga          
 DATA PATH      : C:\DSSAT46\maize\                                             
 TREATMENT  3   : P04/12                    MZCER046                            
                                                                                
                                                                                
 CROP           : Maize            CULTIVAR : DK7088           ECOTYPE :IB0001  
 STARTING DATE  : MAR 13 2009                                                   
 PLANTING DATE  : APR 12 2009        PLANTS/m2 :  6.2     ROW SPACING :  80.cm  
 WEATHER        : CUNI   2009                                                   
 SOIL           : CCBUGA2017     TEXTURE : CL    -   Suelo Buga MADR Fase I     
 SOIL INITIAL C : DEPTH: 90cm EXTR. H2O: 83.9mm  NO3:151.4kg/ha  NH4: 62.4kg/ha 
 WATER BALANCE  : RAINFED                                                       
 IRRIGATION     : NOT IRRIGATED                                                 
 NITROGEN BAL.  : SOIL-N & N-UPTAKE SIMULATION; NO N-FIXATION                   
 N-FERTILIZER   :      161 kg/ha IN     5 APPLICATIONS                          
 RESIDUE/MANURE : INITIAL :     0 kg/ha ;       0 kg/ha IN     0 APPLICATIONS   
 ENVIRONM. OPT. : DAYL=    0.00  SRAD=    0.00  TMAX=    0.00  TMIN=    0.00    
                  RAIN=    0.00  CO2 =    0.00  DEW =    0.00  WIND=    0.00    
 SIMULATION OPT : WATER   :Y  NITROGEN:Y  N-FIX:N  PHOSPH :N  PESTS  :N         
                  PHOTO   :C  ET      :R  INFIL:S  HYDROL :R  SOM    :G         
                  CO2 387ppm  NSWIT   :1  EVAP :S  SOIL   :2  STEMP  :D         
 MANAGEMENT OPT : PLANTING:R  IRRIG   :N  FERT :D  RESIDUE:R  HARVEST:M         
                  WEATHER :M  TILLAGE :N                                        
                                                                                
*SUMMARY OF SOIL AND GENETIC INPUT PARAMETERS                                   
                                                                                
   SOIL LOWER UPPER   SAT  EXTR  INIT   ROOT   BULK     pH    NO3    NH4    ORG 
  DEPTH LIMIT LIMIT    SW    SW    SW   DIST   DENS                          C  
   cm   cm3/cm3    cm3/cm3    cm3/cm3         g/cm3         ugN/g  ugN/g     %  
------------------------------------------------------------------------------- 
  0-  5 0.215 0.331 0.341 0.116 0.319   1.00   1.68   6.70  11.90   4.21   0.75 
  5- 15 0.215 0.331 0.341 0.116 0.319   1.00   1.68   6.70  11.90   4.21   0.75 
 15- 25 0.215 0.331 0.341 0.116 0.319   1.00   1.68   6.70  11.90   4.21   0.75 
 25- 35 0.181 0.291 0.364 0.110 0.331   0.50   1.61   7.20  12.15   4.32   0.53 
 35- 45 0.181 0.291 0.364 0.110 0.344   0.50   1.61   7.20  12.40   4.44   0.53 
 45- 67 0.096 0.169 0.404 0.073 0.290   0.27   1.51   7.00  10.67   4.47   0.05 
 67- 90 0.096 0.169 0.404 0.073 0.195   0.27   1.51   7.00   7.63   4.53   0.05 
                                                                                
TOT- 90  13.3  21.7  34.0   8.4  25.6  <--cm   -  kg/ha-->  151.4   62.4  51964 
SOIL ALBEDO    : 0.09      EVAPORATION LIMIT : 6.00         MIN. FACTOR  : 1.00 
RUNOFF CURVE # :76.00      DRAINAGE RATE     : 0.60         FERT. FACTOR : 1.00 
                                                                                
 Maize      CULTIVAR :CI0004-DK7088             ECOTYPE :IB0001                 
 P1     : 229.00  P2     : 0.3000  P5     : 971.00                              
 G2     : 957.00  G3     :  7.500  PHINT  : 45.000                              


*SIMULATED CROP AND SOIL STATUS AT MAIN DEVELOPMENT STAGES

 RUN NO.     3     P04/12                  

        CROP GROWTH     BIOMASS         LEAF   CROP N     STRESS      STRESS                                           
   DATE  AGE STAGE        kg/ha    LAI   NUM  kg/ha  %   H2O  Nitr Phos1 Phos2  RSTG                                   
 ------  --- ----------   -----  -----  ----  ---  ---  ----  ----  ----  ----  ----                                   
 13 MAR    0 Start Sim        0   0.00   0.0    0  0.0  0.00  0.00  0.00  0.00     7
 12 APR    0 Sowing           0   0.00   0.0    0  0.0  0.00  0.00  0.00  0.00     8
 13 APR    1 Germinate        0   0.00   0.0    0  0.0  0.00  0.00  0.00  0.00     9
 18 APR    6 Emergence       25   0.00   2.1    1  4.4  0.00  0.01  0.00  0.00     1
 30 APR   18 End Juveni      86   0.19   7.6    3  3.6  0.00  0.00  0.00  0.00     2
  7 MAY   25 Floral Ini     279   0.52  10.4   10  3.6  0.00  0.00  0.00  0.00     3
 12 JUN   61 75% Silkin    6104   3.36  21.9  121  2.0  0.13  0.00  0.00  0.00     4
 23 JUN   72 Beg Gr Fil    8440   3.26  21.9  123  1.5  0.00  0.00  0.00  0.00     5
  7 AUG  117 End Gr Fil   14504   1.23  21.9  180  1.2  0.44  0.00  0.00  0.00     6
 10 AUG  120 Maturity     14504   1.23  21.9  180  1.2  0.95  0.00  0.00  0.00    10
 10 AUG  120 Harvest      14504   1.23  21.9  180  1.2  0.00  0.00  0.00  0.00    10


*MAIN GROWTH AND DEVELOPMENT VARIABLES

@     VARIABLE                                         SIMULATED     MEASURED
      --------                                         ---------     --------
      Anthesis day (dap)                                      61          -99
      Physiological maturity day (dap)                       120          -99
      Yield at harvest maturity (kg [dm]/ha)                7491          -99
      Number at maturity (no/m2)                            2807          -99
      Unit wt at maturity (g [dm]/unit)                   0.2669          -99
      Number at maturity (no/unit)                         452.7          -99
      Tops weight at maturity (kg [dm]/ha)                 14504          -99
      By-product produced (stalk) at maturity (kg[dm]/ha    7072          -99
      Leaf area index, maximum                              3.36          -99
      Harvest index at maturity                            0.516          -99
      Grain N at maturity (kg/ha)                            132          -99
      Tops N at maturity (kg/ha)                             180          -99
      Stem N at maturity (kg/ha)                              48          -99
      Grain N at maturity (%)                                1.8          -99
      Tops weight at anthesis (kg [dm]/ha)                  5918          -99
      Tops N at anthesis (kg/ha)                             119          -99
      Leaf number per stem at maturity                     21.90          -99
      Emergence day (dap)                                      6          -99


*ENVIRONMENTAL AND STRESS FACTORS

 |-----Development Phase------|--------------------------------------Environment--------------------------------------|-----------------Stress-----------------|
                              |---------------Average--------------|-----Cumulative-----|--------Count of days--------|          (0=Min, 1=Max Stress)         |
                         Time  Temp  Temp  Temp Solar Photop                Evapo    Pot TMIN TMIN TMAX TMAX TMAX RAIN|----Water----|---Nitrogen--|-Phosphorus-|
                         Span   Max   Min  Mean   Rad  [day]    CO2   Rain  Trans     ET   <    <    >    >    >    >   Photo         Photo         Photo
                         days    邂    邂    邂 MJ/m2     hr    ppm     mm     mm     mm  0邂  2邂 30邂 32邂 34邂  0mm  synth Growth  synth Growth  synth Growth
----------------------------------------------------------------------------------------------------------------------------------------------------------------
 Emergence-End Juvenile    12  32.0  20.0  26.0  15.4  24.00  386.9   15.8   14.2   52.5    0    0    8    4    2    3  0.000  0.000  0.002  0.004  0.000  0.000
 End Juvenil-Floral Init    7  29.9  19.5  24.7  15.7  24.00  386.9   35.2   29.1   30.0    0    0    4    1    0    5  0.000  0.000  0.001  0.001  0.000  0.000
 Floral Init-End Lf Grow   36  31.5  18.9  25.2  16.5  24.00  387.1  132.1  122.4  147.7    0    0   27   10    1   16  0.059  0.127  0.000  0.000  0.000  0.000
 End Lf Grth-Beg Grn Fil   11  29.2  18.5  23.8  14.8  24.00  387.2   26.5   37.9   38.1    0    0    3    0    0    4  0.000  0.000  0.000  0.000  0.000  0.000
 Grain Filling Phase       45  31.1  18.2  24.6  16.9  24.00  387.4   66.8  114.3  184.6    0    0   27   14    4    5  0.380  0.420  0.000  0.000  0.000  0.000


 Planting to Harvest      120  31.1  18.7  24.9  16.6  23.95  387.2  291.6  336.5  500.1    0    0   77   32    7   37  0.184  0.220  0.000  0.000  0.000  0.000
----------------------------------------------------------------------------------------------------------------------------------------------------------------


*Resource Productivity
 Growing season length: 120 days 

 Precipitation during growing season       291.6 mm[rain]
   Dry Matter Productivity                  4.97 kg[DM]/m3[rain]          =   49.7 kg[DM]/ha per mm[rain]
   Yield Productivity                       2.57 kg[grain yield]/m3[rain] =   25.7 kg[yield]/ha per mm[rain]

 Evapotranspiration during growing season  336.5 mm[ET]
   Dry Matter Productivity                  4.31 kg[DM]/m3[ET]            =   43.1 kg[DM]/ha per mm[ET]
   Yield Productivity                       2.23 kg[grain yield]/m3[ET]   =   22.3 kg[yield]/ha per mm[ET]

 Transpiration during growing season       228.9 mm[EP]
   Dry Matter Productivity                  6.34 kg[DM]/m3[EP]            =   63.4 kg[DM]/ha per mm[EP]
   Yield Productivity                       3.27 kg[grain yield]/m3[EP]   =   32.7 kg[yield]/ha per mm[EP]

 N applied during growing season            161. kg[N applied]/ha
   Dry Matter Productivity                  90.1 kg[DM]/kg[N applied]
   Yield Productivity                       46.5 kg[yield]/kg[N applied]

 N uptake during growing season              198 kg[N uptake]/ha
   Dry Matter Productivity                  73.3 kg[DM]/kg[N uptake]
   Yield Productivity                       37.8 kg[yield]/kg[N uptake]

--------------------------------------------------------------------------------------------------------------

                     Maize YIELD :     7491 kg/ha    [Dry weight] 

**************************************************************************************************************

*DSSAT Cropping System Model Ver. 4.6.1.000 -release      OCT 02, 2017; 14:05:29
                                                                                
*RUN   4        : P04/17                    MZCER046 ANBU2009    4              
 MODEL          : MZCER046 - Maize                                              
 EXPERIMENT     : ANBU2009 MZ  Analisis a침os de bajo rendimiento Buga          
 DATA PATH      : C:\DSSAT46\maize\                                             
 TREATMENT  4   : P04/17                    MZCER046                            
                                                                                
                                                                                
 CROP           : Maize            CULTIVAR : DK7088           ECOTYPE :IB0001  
 STARTING DATE  : MAR 18 2009                                                   
 PLANTING DATE  : APR 17 2009        PLANTS/m2 :  6.2     ROW SPACING :  80.cm  
 WEATHER        : CUNI   2009                                                   
 SOIL           : CCBUGA2017     TEXTURE : CL    -   Suelo Buga MADR Fase I     
 SOIL INITIAL C : DEPTH: 90cm EXTR. H2O: 83.9mm  NO3:151.4kg/ha  NH4: 62.4kg/ha 
 WATER BALANCE  : RAINFED                                                       
 IRRIGATION     : NOT IRRIGATED                                                 
 NITROGEN BAL.  : SOIL-N & N-UPTAKE SIMULATION; NO N-FIXATION                   
 N-FERTILIZER   :      161 kg/ha IN     5 APPLICATIONS                          
 RESIDUE/MANURE : INITIAL :     0 kg/ha ;       0 kg/ha IN     0 APPLICATIONS   
 ENVIRONM. OPT. : DAYL=    0.00  SRAD=    0.00  TMAX=    0.00  TMIN=    0.00    
                  RAIN=    0.00  CO2 =    0.00  DEW =    0.00  WIND=    0.00    
 SIMULATION OPT : WATER   :Y  NITROGEN:Y  N-FIX:N  PHOSPH :N  PESTS  :N         
                  PHOTO   :C  ET      :R  INFIL:S  HYDROL :R  SOM    :G         
                  CO2 387ppm  NSWIT   :1  EVAP :S  SOIL   :2  STEMP  :D         
 MANAGEMENT OPT : PLANTING:R  IRRIG   :N  FERT :D  RESIDUE:R  HARVEST:M         
                  WEATHER :M  TILLAGE :N                                        
                                                                                
*SUMMARY OF SOIL AND GENETIC INPUT PARAMETERS                                   
                                                                                
   SOIL LOWER UPPER   SAT  EXTR  INIT   ROOT   BULK     pH    NO3    NH4    ORG 
  DEPTH LIMIT LIMIT    SW    SW    SW   DIST   DENS                          C  
   cm   cm3/cm3    cm3/cm3    cm3/cm3         g/cm3         ugN/g  ugN/g     %  
------------------------------------------------------------------------------- 
  0-  5 0.215 0.331 0.341 0.116 0.319   1.00   1.68   6.70  11.90   4.21   0.75 
  5- 15 0.215 0.331 0.341 0.116 0.319   1.00   1.68   6.70  11.90   4.21   0.75 
 15- 25 0.215 0.331 0.341 0.116 0.319   1.00   1.68   6.70  11.90   4.21   0.75 
 25- 35 0.181 0.291 0.364 0.110 0.331   0.50   1.61   7.20  12.15   4.32   0.53 
 35- 45 0.181 0.291 0.364 0.110 0.344   0.50   1.61   7.20  12.40   4.44   0.53 
 45- 67 0.096 0.169 0.404 0.073 0.290   0.27   1.51   7.00  10.67   4.47   0.05 
 67- 90 0.096 0.169 0.404 0.073 0.195   0.27   1.51   7.00   7.63   4.53   0.05 
                                                                                
TOT- 90  13.3  21.7  34.0   8.4  25.6  <--cm   -  kg/ha-->  151.4   62.4  51964 
SOIL ALBEDO    : 0.09      EVAPORATION LIMIT : 6.00         MIN. FACTOR  : 1.00 
RUNOFF CURVE # :76.00      DRAINAGE RATE     : 0.60         FERT. FACTOR : 1.00 
                                                                                
 Maize      CULTIVAR :CI0004-DK7088             ECOTYPE :IB0001                 
 P1     : 229.00  P2     : 0.3000  P5     : 971.00                              
 G2     : 957.00  G3     :  7.500  PHINT  : 45.000                              


*SIMULATED CROP AND SOIL STATUS AT MAIN DEVELOPMENT STAGES

 RUN NO.     4     P04/17                  

        CROP GROWTH     BIOMASS         LEAF   CROP N     STRESS      STRESS                                           
   DATE  AGE STAGE        kg/ha    LAI   NUM  kg/ha  %   H2O  Nitr Phos1 Phos2  RSTG                                   
 ------  --- ----------   -----  -----  ----  ---  ---  ----  ----  ----  ----  ----                                   
 18 MAR    0 Start Sim        0   0.00   0.0    0  0.0  0.00  0.00  0.00  0.00     7
 17 APR    0 Sowing           0   0.00   0.0    0  0.0  0.00  0.00  0.00  0.00     8
 18 APR    1 Germinate        0   0.00   0.0    0  0.0  0.00  0.00  0.00  0.00     9
 23 APR    6 Emergence       25   0.00   2.1    1  4.4  0.00  0.01  0.00  0.00     1
  5 MAY   18 End Juveni      71   0.16   7.5    2  3.2  0.00  0.00  0.00  0.00     2
 12 MAY   25 Floral Ini     343   0.61  10.3   12  3.6  0.00  0.00  0.00  0.00     3
 17 JUN   61 75% Silkin    6334   3.60  21.5  127  2.0  0.09  0.00  0.00  0.00     4
 28 JUN   72 Beg Gr Fil    8530   3.41  21.5  127  1.5  0.00  0.00  0.00  0.00     5
 11 AUG  116 End Gr Fil   13890   1.19  21.5  170  1.2  0.51  0.00  0.00  0.00     6
 14 AUG  119 Maturity     13890   1.19  21.5  170  1.2  0.98  0.00  0.00  0.00    10
 14 AUG  119 Harvest      13890   1.19  21.5  170  1.2  0.00  0.00  0.00  0.00    10


*MAIN GROWTH AND DEVELOPMENT VARIABLES

@     VARIABLE                                         SIMULATED     MEASURED
      --------                                         ---------     --------
      Anthesis day (dap)                                      61          -99
      Physiological maturity day (dap)                       119          -99
      Yield at harvest maturity (kg [dm]/ha)                6845          -99
      Number at maturity (no/m2)                            2764          -99
      Unit wt at maturity (g [dm]/unit)                   0.2477          -99
      Number at maturity (no/unit)                         445.8          -99
      Tops weight at maturity (kg [dm]/ha)                 13890          -99
      By-product produced (stalk) at maturity (kg[dm]/ha    7106          -99
      Leaf area index, maximum                              3.65          -99
      Harvest index at maturity                            0.493          -99
      Grain N at maturity (kg/ha)                            121          -99
      Tops N at maturity (kg/ha)                             170          -99
      Stem N at maturity (kg/ha)                              49          -99
      Grain N at maturity (%)                                1.8          -99
      Tops weight at anthesis (kg [dm]/ha)                  6079          -99
      Tops N at anthesis (kg/ha)                             124          -99
      Leaf number per stem at maturity                     21.48          -99
      Emergence day (dap)                                      6          -99


*ENVIRONMENTAL AND STRESS FACTORS

 |-----Development Phase------|--------------------------------------Environment--------------------------------------|-----------------Stress-----------------|
                              |---------------Average--------------|-----Cumulative-----|--------Count of days--------|          (0=Min, 1=Max Stress)         |
                         Time  Temp  Temp  Temp Solar Photop                Evapo    Pot TMIN TMIN TMAX TMAX TMAX RAIN|----Water----|---Nitrogen--|-Phosphorus-|
                         Span   Max   Min  Mean   Rad  [day]    CO2   Rain  Trans     ET   <    <    >    >    >    >   Photo         Photo         Photo
                         days    邂    邂    邂 MJ/m2     hr    ppm     mm     mm     mm  0邂  2邂 30邂 32邂 34邂  0mm  synth Growth  synth Growth  synth Growth
----------------------------------------------------------------------------------------------------------------------------------------------------------------
 Emergence-End Juvenile    12  31.2  19.8  25.5  15.6  24.00  386.9   51.0   28.2   53.1    0    0    6    4    2    8  0.000  0.000  0.002  0.004  0.000  0.000
 End Juvenil-Floral Init    7  31.0  18.4  24.7  18.3  24.00  386.9    2.8   20.2   34.7    0    0    6    0    0    2  0.000  0.000  0.000  0.001  0.000  0.000
 Floral Init-End Lf Grow   36  31.3  18.9  25.1  16.2  24.00  387.1  150.0  123.2  143.6    0    0   24   10    1   16  0.036  0.091  0.000  0.000  0.000  0.000
 End Lf Grth-Beg Grn Fil   11  29.0  18.3  23.6  14.3  24.00  387.3    5.8   36.5   36.7    0    0    3    0    0    2  0.000  0.000  0.000  0.000  0.000  0.000
 Grain Filling Phase       44  31.4  18.2  24.8  17.2  24.00  387.4   73.8  107.5  184.2    0    0   29   16    4    7  0.436  0.485  0.000  0.000  0.000  0.000


 Planting to Harvest      119  31.2  18.7  25.0  16.4  24.00  387.2  294.0  324.4  490.9    0    0   76   35    7   36  0.196  0.231  0.000  0.000  0.000  0.000
----------------------------------------------------------------------------------------------------------------------------------------------------------------


*Resource Productivity
 Growing season length: 119 days 

 Precipitation during growing season       294.0 mm[rain]
   Dry Matter Productivity                  4.72 kg[DM]/m3[rain]          =   47.2 kg[DM]/ha per mm[rain]
   Yield Productivity                       2.33 kg[grain yield]/m3[rain] =   23.3 kg[yield]/ha per mm[rain]

 Evapotranspiration during growing season  324.4 mm[ET]
   Dry Matter Productivity                  4.28 kg[DM]/m3[ET]            =   42.8 kg[DM]/ha per mm[ET]
   Yield Productivity                       2.11 kg[grain yield]/m3[ET]   =   21.1 kg[yield]/ha per mm[ET]

 Transpiration during growing season       227.4 mm[EP]
   Dry Matter Productivity                  6.11 kg[DM]/m3[EP]            =   61.1 kg[DM]/ha per mm[EP]
   Yield Productivity                       3.01 kg[grain yield]/m3[EP]   =   30.1 kg[yield]/ha per mm[EP]

 N applied during growing season            161. kg[N applied]/ha
   Dry Matter Productivity                  86.3 kg[DM]/kg[N applied]
   Yield Productivity                       42.5 kg[yield]/kg[N applied]

 N uptake during growing season              189 kg[N uptake]/ha
   Dry Matter Productivity                  73.5 kg[DM]/kg[N uptake]
   Yield Productivity                       36.2 kg[yield]/kg[N uptake]

--------------------------------------------------------------------------------------------------------------

                     Maize YIELD :     6845 kg/ha    [Dry weight] 

**************************************************************************************************************

*DSSAT Cropping System Model Ver. 4.6.1.000 -release      OCT 02, 2017; 14:05:30
                                                                                
*RUN   5        : P04/22                    MZCER046 ANBU2009    5              
 MODEL          : MZCER046 - Maize                                              
 EXPERIMENT     : ANBU2009 MZ  Analisis a침os de bajo rendimiento Buga          
 DATA PATH      : C:\DSSAT46\maize\                                             
 TREATMENT  5   : P04/22                    MZCER046                            
                                                                                
                                                                                
 CROP           : Maize            CULTIVAR : DK7088           ECOTYPE :IB0001  
 STARTING DATE  : MAR 23 2009                                                   
 PLANTING DATE  : APR 22 2009        PLANTS/m2 :  6.2     ROW SPACING :  80.cm  
 WEATHER        : CUNI   2009                                                   
 SOIL           : CCBUGA2017     TEXTURE : CL    -   Suelo Buga MADR Fase I     
 SOIL INITIAL C : DEPTH: 90cm EXTR. H2O: 83.9mm  NO3:151.4kg/ha  NH4: 62.4kg/ha 
 WATER BALANCE  : RAINFED                                                       
 IRRIGATION     : NOT IRRIGATED                                                 
 NITROGEN BAL.  : SOIL-N & N-UPTAKE SIMULATION; NO N-FIXATION                   
 N-FERTILIZER   :      161 kg/ha IN     5 APPLICATIONS                          
 RESIDUE/MANURE : INITIAL :     0 kg/ha ;       0 kg/ha IN     0 APPLICATIONS   
 ENVIRONM. OPT. : DAYL=    0.00  SRAD=    0.00  TMAX=    0.00  TMIN=    0.00    
                  RAIN=    0.00  CO2 =    0.00  DEW =    0.00  WIND=    0.00    
 SIMULATION OPT : WATER   :Y  NITROGEN:Y  N-FIX:N  PHOSPH :N  PESTS  :N         
                  PHOTO   :C  ET      :R  INFIL:S  HYDROL :R  SOM    :G         
                  CO2 387ppm  NSWIT   :1  EVAP :S  SOIL   :2  STEMP  :D         
 MANAGEMENT OPT : PLANTING:R  IRRIG   :N  FERT :D  RESIDUE:R  HARVEST:M         
                  WEATHER :M  TILLAGE :N                                        
                                                                                
*SUMMARY OF SOIL AND GENETIC INPUT PARAMETERS                                   
                                                                                
   SOIL LOWER UPPER   SAT  EXTR  INIT   ROOT   BULK     pH    NO3    NH4    ORG 
  DEPTH LIMIT LIMIT    SW    SW    SW   DIST   DENS                          C  
   cm   cm3/cm3    cm3/cm3    cm3/cm3         g/cm3         ugN/g  ugN/g     %  
------------------------------------------------------------------------------- 
  0-  5 0.215 0.331 0.341 0.116 0.319   1.00   1.68   6.70  11.90   4.21   0.75 
  5- 15 0.215 0.331 0.341 0.116 0.319   1.00   1.68   6.70  11.90   4.21   0.75 
 15- 25 0.215 0.331 0.341 0.116 0.319   1.00   1.68   6.70  11.90   4.21   0.75 
 25- 35 0.181 0.291 0.364 0.110 0.331   0.50   1.61   7.20  12.15   4.32   0.53 
 35- 45 0.181 0.291 0.364 0.110 0.344   0.50   1.61   7.20  12.40   4.44   0.53 
 45- 67 0.096 0.169 0.404 0.073 0.290   0.27   1.51   7.00  10.67   4.47   0.05 
 67- 90 0.096 0.169 0.404 0.073 0.195   0.27   1.51   7.00   7.63   4.53   0.05 
                                                                                
TOT- 90  13.3  21.7  34.0   8.4  25.6  <--cm   -  kg/ha-->  151.4   62.4  51964 
SOIL ALBEDO    : 0.09      EVAPORATION LIMIT : 6.00         MIN. FACTOR  : 1.00 
RUNOFF CURVE # :76.00      DRAINAGE RATE     : 0.60         FERT. FACTOR : 1.00 
                                                                                
 Maize      CULTIVAR :CI0004-DK7088             ECOTYPE :IB0001                 
 P1     : 229.00  P2     : 0.3000  P5     : 971.00                              
 G2     : 957.00  G3     :  7.500  PHINT  : 45.000                              


*SIMULATED CROP AND SOIL STATUS AT MAIN DEVELOPMENT STAGES

 RUN NO.     5     P04/22                  

        CROP GROWTH     BIOMASS         LEAF   CROP N     STRESS      STRESS                                           
   DATE  AGE STAGE        kg/ha    LAI   NUM  kg/ha  %   H2O  Nitr Phos1 Phos2  RSTG                                   
 ------  --- ----------   -----  -----  ----  ---  ---  ----  ----  ----  ----  ----                                   
 23 MAR    0 Start Sim        0   0.00   0.0    0  0.0  0.00  0.00  0.00  0.00     7
 22 APR    0 Sowing           0   0.00   0.0    0  0.0  0.00  0.00  0.00  0.00     8
 23 APR    1 Germinate        0   0.00   0.0    0  0.0  0.00  0.00  0.00  0.00     9
 27 APR    5 Emergence       25   0.00   2.2    1  4.4  0.00  0.01  0.00  0.00     1
 10 MAY   18 End Juveni     103   0.22   7.8    3  3.2  0.00  0.00  0.00  0.00     2
 17 MAY   25 Floral Ini     407   0.71  10.5   15  3.6  0.00  0.00  0.00  0.00     3
 22 JUN   61 75% Silkin    6646   3.83  21.6  132  2.0  0.02  0.00  0.00  0.00     4
  3 JUL   72 Beg Gr Fil    8948   3.62  21.6  132  1.5  0.00  0.00  0.00  0.00     5
 16 AUG  116 End Gr Fil   13800   1.14  21.6  166  1.2  0.56  0.00  0.00  0.00     6
 19 AUG  119 Maturity     13800   1.14  21.6  166  1.2  0.30  0.00  0.00  0.00    10
 19 AUG  119 Harvest      13800   1.14  21.6  166  1.2  0.00  0.00  0.00  0.00    10


*MAIN GROWTH AND DEVELOPMENT VARIABLES

@     VARIABLE                                         SIMULATED     MEASURED
      --------                                         ---------     --------
      Anthesis day (dap)                                      61          -99
      Physiological maturity day (dap)                       119          -99
      Yield at harvest maturity (kg [dm]/ha)                6379          -99
      Number at maturity (no/m2)                            2795          -99
      Unit wt at maturity (g [dm]/unit)                   0.2282          -99
      Number at maturity (no/unit)                         450.9          -99
      Tops weight at maturity (kg [dm]/ha)                 13800          -99
      By-product produced (stalk) at maturity (kg[dm]/ha    7485          -99
      Leaf area index, maximum                              4.02          -99
      Harvest index at maturity                            0.462          -99
      Grain N at maturity (kg/ha)                            114          -99
      Tops N at maturity (kg/ha)                             166          -99
      Stem N at maturity (kg/ha)                              52          -99
      Grain N at maturity (%)                                1.8          -99
      Tops weight at anthesis (kg [dm]/ha)                  6479          -99
      Tops N at anthesis (kg/ha)                             130          -99
      Leaf number per stem at maturity                     21.64          -99
      Emergence day (dap)                                      5          -99


*ENVIRONMENTAL AND STRESS FACTORS

 |-----Development Phase------|--------------------------------------Environment--------------------------------------|-----------------Stress-----------------|
                              |---------------Average--------------|-----Cumulative-----|--------Count of days--------|          (0=Min, 1=Max Stress)         |
                         Time  Temp  Temp  Temp Solar Photop                Evapo    Pot TMIN TMIN TMAX TMAX TMAX RAIN|----Water----|---Nitrogen--|-Phosphorus-|
                         Span   Max   Min  Mean   Rad  [day]    CO2   Rain  Trans     ET   <    <    >    >    >    >   Photo         Photo         Photo
                         days    邂    邂    邂 MJ/m2     hr    ppm     mm     mm     mm  0邂  2邂 30邂 32邂 34邂  0mm  synth Growth  synth Growth  synth Growth
----------------------------------------------------------------------------------------------------------------------------------------------------------------
 Emergence-End Juvenile    13  30.6  19.4  25.0  16.3  24.00  386.9   42.1   35.6   59.7    0    0    8    2    1    7  0.000  0.000  0.002  0.006  0.000  0.000
 End Juvenil-Floral Init    7  31.5  18.1  24.8  18.0  24.00  387.0    5.3   13.8   34.0    0    0    5    1    0    4  0.000  0.000  0.000  0.001  0.000  0.000
 Floral Init-End Lf Grow   36  31.0  19.0  25.0  15.7  24.00  387.1  152.1  127.0  138.4    0    0   22    9    1   15  0.000  0.023  0.000  0.000  0.000  0.000
 End Lf Grth-Beg Grn Fil   11  28.3  18.0  23.2  14.3  24.00  387.3   55.5   35.9   36.1    0    0    1    0    0    3  0.000  0.000  0.000  0.000  0.000  0.000
 Grain Filling Phase       44  32.0  18.4  25.2  17.5  24.00  387.4   30.1  102.6  188.1    0    0   34   21    5    6  0.492  0.539  0.000  0.000  0.000  0.000


 Planting to Harvest      119  31.2  18.7  24.9  16.5  24.00  387.2  299.6  325.3  491.7    0    0   76   35    8   38  0.197  0.222  0.000  0.001  0.000  0.000
----------------------------------------------------------------------------------------------------------------------------------------------------------------


*Resource Productivity
 Growing season length: 119 days 

 Precipitation during growing season       299.6 mm[rain]
   Dry Matter Productivity                  4.61 kg[DM]/m3[rain]          =   46.1 kg[DM]/ha per mm[rain]
   Yield Productivity                       2.13 kg[grain yield]/m3[rain] =   21.3 kg[yield]/ha per mm[rain]

 Evapotranspiration during growing season  325.3 mm[ET]
   Dry Matter Productivity                  4.24 kg[DM]/m3[ET]            =   42.4 kg[DM]/ha per mm[ET]
   Yield Productivity                       1.96 kg[grain yield]/m3[ET]   =   19.6 kg[yield]/ha per mm[ET]

 Transpiration during growing season       230.5 mm[EP]
   Dry Matter Productivity                  5.99 kg[DM]/m3[EP]            =   59.9 kg[DM]/ha per mm[EP]
   Yield Productivity                       2.77 kg[grain yield]/m3[EP]   =   27.7 kg[yield]/ha per mm[EP]

 N applied during growing season            161. kg[N applied]/ha
   Dry Matter Productivity                  85.7 kg[DM]/kg[N applied]
   Yield Productivity                       39.6 kg[yield]/kg[N applied]

 N uptake during growing season              187 kg[N uptake]/ha
   Dry Matter Productivity                  73.8 kg[DM]/kg[N uptake]
   Yield Productivity                       34.1 kg[yield]/kg[N uptake]

--------------------------------------------------------------------------------------------------------------

                     Maize YIELD :     6379 kg/ha    [Dry weight] 

**************************************************************************************************************

*DSSAT Cropping System Model Ver. 4.6.1.000 -release      OCT 02, 2017; 14:05:30
                                                                                
*RUN   6        : P04/27                    MZCER046 ANBU2009    6              
 MODEL          : MZCER046 - Maize                                              
 EXPERIMENT     : ANBU2009 MZ  Analisis a침os de bajo rendimiento Buga          
 DATA PATH      : C:\DSSAT46\maize\                                             
 TREATMENT  6   : P04/27                    MZCER046                            
                                                                                
                                                                                
 CROP           : Maize            CULTIVAR : DK7088           ECOTYPE :IB0001  
 STARTING DATE  : MAR 28 2009                                                   
 PLANTING DATE  : APR 27 2009        PLANTS/m2 :  6.2     ROW SPACING :  80.cm  
 WEATHER        : CUNI   2009                                                   
 SOIL           : CCBUGA2017     TEXTURE : CL    -   Suelo Buga MADR Fase I     
 SOIL INITIAL C : DEPTH: 90cm EXTR. H2O: 83.9mm  NO3:151.4kg/ha  NH4: 62.4kg/ha 
 WATER BALANCE  : RAINFED                                                       
 IRRIGATION     : NOT IRRIGATED                                                 
 NITROGEN BAL.  : SOIL-N & N-UPTAKE SIMULATION; NO N-FIXATION                   
 N-FERTILIZER   :      161 kg/ha IN     5 APPLICATIONS                          
 RESIDUE/MANURE : INITIAL :     0 kg/ha ;       0 kg/ha IN     0 APPLICATIONS   
 ENVIRONM. OPT. : DAYL=    0.00  SRAD=    0.00  TMAX=    0.00  TMIN=    0.00    
                  RAIN=    0.00  CO2 =    0.00  DEW =    0.00  WIND=    0.00    
 SIMULATION OPT : WATER   :Y  NITROGEN:Y  N-FIX:N  PHOSPH :N  PESTS  :N         
                  PHOTO   :C  ET      :R  INFIL:S  HYDROL :R  SOM    :G         
                  CO2 387ppm  NSWIT   :1  EVAP :S  SOIL   :2  STEMP  :D         
 MANAGEMENT OPT : PLANTING:R  IRRIG   :N  FERT :D  RESIDUE:R  HARVEST:M         
                  WEATHER :M  TILLAGE :N                                        
                                                                                
*SUMMARY OF SOIL AND GENETIC INPUT PARAMETERS                                   
                                                                                
   SOIL LOWER UPPER   SAT  EXTR  INIT   ROOT   BULK     pH    NO3    NH4    ORG 
  DEPTH LIMIT LIMIT    SW    SW    SW   DIST   DENS                          C  
   cm   cm3/cm3    cm3/cm3    cm3/cm3         g/cm3         ugN/g  ugN/g     %  
------------------------------------------------------------------------------- 
  0-  5 0.215 0.331 0.341 0.116 0.319   1.00   1.68   6.70  11.90   4.21   0.75 
  5- 15 0.215 0.331 0.341 0.116 0.319   1.00   1.68   6.70  11.90   4.21   0.75 
 15- 25 0.215 0.331 0.341 0.116 0.319   1.00   1.68   6.70  11.90   4.21   0.75 
 25- 35 0.181 0.291 0.364 0.110 0.331   0.50   1.61   7.20  12.15   4.32   0.53 
 35- 45 0.181 0.291 0.364 0.110 0.344   0.50   1.61   7.20  12.40   4.44   0.53 
 45- 67 0.096 0.169 0.404 0.073 0.290   0.27   1.51   7.00  10.67   4.47   0.05 
 67- 90 0.096 0.169 0.404 0.073 0.195   0.27   1.51   7.00   7.63   4.53   0.05 
                                                                                
TOT- 90  13.3  21.7  34.0   8.4  25.6  <--cm   -  kg/ha-->  151.4   62.4  51964 
SOIL ALBEDO    : 0.09      EVAPORATION LIMIT : 6.00         MIN. FACTOR  : 1.00 
RUNOFF CURVE # :76.00      DRAINAGE RATE     : 0.60         FERT. FACTOR : 1.00 
                                                                                
 Maize      CULTIVAR :CI0004-DK7088             ECOTYPE :IB0001                 
 P1     : 229.00  P2     : 0.3000  P5     : 971.00                              
 G2     : 957.00  G3     :  7.500  PHINT  : 45.000                              


*SIMULATED CROP AND SOIL STATUS AT MAIN DEVELOPMENT STAGES

 RUN NO.     6     P04/27                  

        CROP GROWTH     BIOMASS         LEAF   CROP N     STRESS      STRESS                                           
   DATE  AGE STAGE        kg/ha    LAI   NUM  kg/ha  %   H2O  Nitr Phos1 Phos2  RSTG                                   
 ------  --- ----------   -----  -----  ----  ---  ---  ----  ----  ----  ----  ----                                   
 28 MAR    0 Start Sim        0   0.00   0.0    0  0.0  0.00  0.00  0.00  0.00     7
 27 APR    0 Sowing           0   0.00   0.0    0  0.0  0.00  0.00  0.00  0.00     8
 28 APR    1 Germinate        0   0.00   0.0    0  0.0  0.00  0.00  0.00  0.00     9
  3 MAY    6 Emergence       25   0.00   2.1    1  4.4  0.00  0.01  0.00  0.00     1
 16 MAY   19 End Juveni     123   0.26   7.8    4  3.3  0.00  0.00  0.00  0.00     2
 23 MAY   26 Floral Ini     409   0.71  10.6   15  3.6  0.00  0.00  0.00  0.00     3
 30 JUN   64 75% Silkin    7118   3.87  22.1  139  2.0  0.00  0.00  0.00  0.00     4
 11 JUL   75 Beg Gr Fil    9547   3.66  22.1  139  1.5  0.00  0.00  0.00  0.00     5
 23 AUG  118 End Gr Fil   13525   0.99  22.1  155  1.1  0.65  0.00  0.00  0.00     6
 26 AUG  121 Maturity     13525   0.99  22.1  155  1.1  0.00  0.00  0.00  0.00    10
 26 AUG  121 Harvest      13525   0.99  22.1  155  1.1  0.00  0.00  0.00  0.00    10


*MAIN GROWTH AND DEVELOPMENT VARIABLES

@     VARIABLE                                         SIMULATED     MEASURED
      --------                                         ---------     --------
      Anthesis day (dap)                                      64          -99
      Physiological maturity day (dap)                       121          -99
      Yield at harvest maturity (kg [dm]/ha)                5643          -99
      Number at maturity (no/m2)                            3003          -99
      Unit wt at maturity (g [dm]/unit)                   0.1879          -99
      Number at maturity (no/unit)                         484.4          -99
      Tops weight at maturity (kg [dm]/ha)                 13525          -99
      By-product produced (stalk) at maturity (kg[dm]/ha    7949          -99
      Leaf area index, maximum                              4.07          -99
      Harvest index at maturity                            0.417          -99
      Grain N at maturity (kg/ha)                            102          -99
      Tops N at maturity (kg/ha)                             155          -99
      Stem N at maturity (kg/ha)                              53          -99
      Grain N at maturity (%)                                1.8          -99
      Tops weight at anthesis (kg [dm]/ha)                  6850          -99
      Tops N at anthesis (kg/ha)                             137          -99
      Leaf number per stem at maturity                     22.13          -99
      Emergence day (dap)                                      6          -99


*ENVIRONMENTAL AND STRESS FACTORS

 |-----Development Phase------|--------------------------------------Environment--------------------------------------|-----------------Stress-----------------|
                              |---------------Average--------------|-----Cumulative-----|--------Count of days--------|          (0=Min, 1=Max Stress)         |
                         Time  Temp  Temp  Temp Solar Photop                Evapo    Pot TMIN TMIN TMAX TMAX TMAX RAIN|----Water----|---Nitrogen--|-Phosphorus-|
                         Span   Max   Min  Mean   Rad  [day]    CO2   Rain  Trans     ET   <    <    >    >    >    >   Photo         Photo         Photo
                         days    邂    邂    邂 MJ/m2     hr    ppm     mm     mm     mm  0邂  2邂 30邂 32邂 34邂  0mm  synth Growth  synth Growth  synth Growth
----------------------------------------------------------------------------------------------------------------------------------------------------------------
 Emergence-End Juvenile    13  30.9  18.5  24.7  17.5  24.00  386.9   12.6   25.5   63.3    0    0    9    1    0    5  0.000  0.000  0.002  0.005  0.000  0.000
 End Juvenil-Floral Init    7  32.4  18.8  25.6  13.4  24.00  387.1    0.5   10.6   25.5    0    0    7    3    0    1  0.000  0.000  0.001  0.002  0.000  0.000
 Floral Init-End Lf Grow   38  30.1  18.8  24.5  15.7  24.00  387.2  172.6  134.7  145.2    0    0   17    6    1   17  0.000  0.000  0.000  0.000  0.000  0.000
 End Lf Grth-Beg Grn Fil   11  29.3  18.4  23.8  15.4  24.00  387.3   37.5   39.2   39.4    0    0    1    0    0    3  0.000  0.000  0.000  0.000  0.000  0.000
 Grain Filling Phase       43  32.4  18.5  25.5  17.9  24.00  387.5   49.2   90.3  190.7    0    0   39   21    5    9  0.588  0.649  0.000  0.000  0.000  0.000


 Planting to Harvest      121  31.1  18.7  24.9  16.5  24.00  387.3  316.1  327.8  503.8    0    0   78   34    7   41  0.209  0.231  0.000  0.001  0.000  0.000
----------------------------------------------------------------------------------------------------------------------------------------------------------------


*Resource Productivity
 Growing season length: 121 days 

 Precipitation during growing season       316.1 mm[rain]
   Dry Matter Productivity                  4.28 kg[DM]/m3[rain]          =   42.8 kg[DM]/ha per mm[rain]
   Yield Productivity                       1.79 kg[grain yield]/m3[rain] =   17.9 kg[yield]/ha per mm[rain]

 Evapotranspiration during growing season  327.8 mm[ET]
   Dry Matter Productivity                  4.13 kg[DM]/m3[ET]            =   41.3 kg[DM]/ha per mm[ET]
   Yield Productivity                       1.72 kg[grain yield]/m3[ET]   =   17.2 kg[yield]/ha per mm[ET]

 Transpiration during growing season       225.0 mm[EP]
   Dry Matter Productivity                  6.01 kg[DM]/m3[EP]            =   60.1 kg[DM]/ha per mm[EP]
   Yield Productivity                       2.51 kg[grain yield]/m3[EP]   =   25.1 kg[yield]/ha per mm[EP]

 N applied during growing season            161. kg[N applied]/ha
   Dry Matter Productivity                  84.0 kg[DM]/kg[N applied]
   Yield Productivity                       35.0 kg[yield]/kg[N applied]

 N uptake during growing season              174 kg[N uptake]/ha
   Dry Matter Productivity                  77.7 kg[DM]/kg[N uptake]
   Yield Productivity                       32.4 kg[yield]/kg[N uptake]

--------------------------------------------------------------------------------------------------------------

                     Maize YIELD :     5643 kg/ha    [Dry weight] 

**************************************************************************************************************

*DSSAT Cropping System Model Ver. 4.6.1.000 -release      OCT 02, 2017; 14:05:30
                                                                                
*RUN   7        : P05/02                    MZCER046 ANBU2009    7              
 MODEL          : MZCER046 - Maize                                              
 EXPERIMENT     : ANBU2009 MZ  Analisis a침os de bajo rendimiento Buga          
 DATA PATH      : C:\DSSAT46\maize\                                             
 TREATMENT  7   : P05/02                    MZCER046                            
                                                                                
                                                                                
 CROP           : Maize            CULTIVAR : DK7088           ECOTYPE :IB0001  
 STARTING DATE  : APR  2 2009                                                   
 PLANTING DATE  : MAY  2 2009        PLANTS/m2 :  6.2     ROW SPACING :  80.cm  
 WEATHER        : CUNI   2009                                                   
 SOIL           : CCBUGA2017     TEXTURE : CL    -   Suelo Buga MADR Fase I     
 SOIL INITIAL C : DEPTH: 90cm EXTR. H2O: 83.9mm  NO3:151.4kg/ha  NH4: 62.4kg/ha 
 WATER BALANCE  : RAINFED                                                       
 IRRIGATION     : NOT IRRIGATED                                                 
 NITROGEN BAL.  : SOIL-N & N-UPTAKE SIMULATION; NO N-FIXATION                   
 N-FERTILIZER   :      161 kg/ha IN     5 APPLICATIONS                          
 RESIDUE/MANURE : INITIAL :     0 kg/ha ;       0 kg/ha IN     0 APPLICATIONS   
 ENVIRONM. OPT. : DAYL=    0.00  SRAD=    0.00  TMAX=    0.00  TMIN=    0.00    
                  RAIN=    0.00  CO2 =    0.00  DEW =    0.00  WIND=    0.00    
 SIMULATION OPT : WATER   :Y  NITROGEN:Y  N-FIX:N  PHOSPH :N  PESTS  :N         
                  PHOTO   :C  ET      :R  INFIL:S  HYDROL :R  SOM    :G         
                  CO2 387ppm  NSWIT   :1  EVAP :S  SOIL   :2  STEMP  :D         
 MANAGEMENT OPT : PLANTING:R  IRRIG   :N  FERT :D  RESIDUE:R  HARVEST:M         
                  WEATHER :M  TILLAGE :N                                        
                                                                                
*SUMMARY OF SOIL AND GENETIC INPUT PARAMETERS                                   
                                                                                
   SOIL LOWER UPPER   SAT  EXTR  INIT   ROOT   BULK     pH    NO3    NH4    ORG 
  DEPTH LIMIT LIMIT    SW    SW    SW   DIST   DENS                          C  
   cm   cm3/cm3    cm3/cm3    cm3/cm3         g/cm3         ugN/g  ugN/g     %  
------------------------------------------------------------------------------- 
  0-  5 0.215 0.331 0.341 0.116 0.319   1.00   1.68   6.70  11.90   4.21   0.75 
  5- 15 0.215 0.331 0.341 0.116 0.319   1.00   1.68   6.70  11.90   4.21   0.75 
 15- 25 0.215 0.331 0.341 0.116 0.319   1.00   1.68   6.70  11.90   4.21   0.75 
 25- 35 0.181 0.291 0.364 0.110 0.331   0.50   1.61   7.20  12.15   4.32   0.53 
 35- 45 0.181 0.291 0.364 0.110 0.344   0.50   1.61   7.20  12.40   4.44   0.53 
 45- 67 0.096 0.169 0.404 0.073 0.290   0.27   1.51   7.00  10.67   4.47   0.05 
 67- 90 0.096 0.169 0.404 0.073 0.195   0.27   1.51   7.00   7.63   4.53   0.05 
                                                                                
TOT- 90  13.3  21.7  34.0   8.4  25.6  <--cm   -  kg/ha-->  151.4   62.4  51964 
SOIL ALBEDO    : 0.09      EVAPORATION LIMIT : 6.00         MIN. FACTOR  : 1.00 
RUNOFF CURVE # :76.00      DRAINAGE RATE     : 0.60         FERT. FACTOR : 1.00 
                                                                                
 Maize      CULTIVAR :CI0004-DK7088             ECOTYPE :IB0001                 
 P1     : 229.00  P2     : 0.3000  P5     : 971.00                              
 G2     : 957.00  G3     :  7.500  PHINT  : 45.000                              


*SIMULATED CROP AND SOIL STATUS AT MAIN DEVELOPMENT STAGES

 RUN NO.     7     P05/02                  

        CROP GROWTH     BIOMASS         LEAF   CROP N     STRESS      STRESS                                           
   DATE  AGE STAGE        kg/ha    LAI   NUM  kg/ha  %   H2O  Nitr Phos1 Phos2  RSTG                                   
 ------  --- ----------   -----  -----  ----  ---  ---  ----  ----  ----  ----  ----                                   
  2 APR    0 Start Sim        0   0.00   0.0    0  0.0  0.00  0.00  0.00  0.00     7
  2 MAY    0 Sowing           0   0.00   0.0    0  0.0  0.00  0.00  0.00  0.00     8
  3 MAY    1 Germinate        0   0.00   0.0    0  0.0  0.00  0.00  0.00  0.00     9
  8 MAY    6 Emergence       25   0.00   2.1    1  4.4  0.00  0.01  0.00  0.00     1
 21 MAY   19 End Juveni     133   0.28   7.9    4  3.3  0.00  0.00  0.00  0.00     2
 28 MAY   26 Floral Ini     466   0.79  10.7   17  3.6  0.00  0.00  0.00  0.00     3
  6 JUL   65 75% Silkin    6723   3.66  22.3  130  1.9  0.00  0.00  0.00  0.00     4
 16 JUL   75 Beg Gr Fil    9282   3.46  22.3  130  1.4  0.02  0.00  0.00  0.00     5
 28 AUG  118 End Gr Fil   12915   0.93  22.3  135  1.0  0.68  0.00  0.00  0.00     6
 31 AUG  121 Maturity     12915   0.93  22.3  135  1.0  0.87  0.00  0.00  0.00    10
 31 AUG  121 Harvest      12915   0.93  22.3  135  1.0  0.00  0.00  0.00  0.00    10


*MAIN GROWTH AND DEVELOPMENT VARIABLES

@     VARIABLE                                         SIMULATED     MEASURED
      --------                                         ---------     --------
      Anthesis day (dap)                                      65          -99
      Physiological maturity day (dap)                       121          -99
      Yield at harvest maturity (kg [dm]/ha)                4950          -99
      Number at maturity (no/m2)                            3286          -99
      Unit wt at maturity (g [dm]/unit)                   0.1506          -99
      Number at maturity (no/unit)                         530.1          -99
      Tops weight at maturity (kg [dm]/ha)                 12915          -99
      By-product produced (stalk) at maturity (kg[dm]/ha    8027          -99
      Leaf area index, maximum                              3.84          -99
      Harvest index at maturity                            0.383          -99
      Grain N at maturity (kg/ha)                             90          -99
      Tops N at maturity (kg/ha)                             135          -99
      Stem N at maturity (kg/ha)                              46          -99
      Grain N at maturity (%)                                1.8          -99
      Tops weight at anthesis (kg [dm]/ha)                  6467          -99
      Tops N at anthesis (kg/ha)                             128          -99
      Leaf number per stem at maturity                     22.28          -99
      Emergence day (dap)                                      6          -99


*ENVIRONMENTAL AND STRESS FACTORS

 |-----Development Phase------|--------------------------------------Environment--------------------------------------|-----------------Stress-----------------|
                              |---------------Average--------------|-----Cumulative-----|--------Count of days--------|          (0=Min, 1=Max Stress)         |
                         Time  Temp  Temp  Temp Solar Photop                Evapo    Pot TMIN TMIN TMAX TMAX TMAX RAIN|----Water----|---Nitrogen--|-Phosphorus-|
                         Span   Max   Min  Mean   Rad  [day]    CO2   Rain  Trans     ET   <    <    >    >    >    >   Photo         Photo         Photo
                         days    邂    邂    邂 MJ/m2     hr    ppm     mm     mm     mm  0邂  2邂 30邂 32邂 34邂  0mm  synth Growth  synth Growth  synth Growth
----------------------------------------------------------------------------------------------------------------------------------------------------------------
 Emergence-End Juvenile    13  31.7  18.4  25.0  16.8  24.00  387.0    5.3   14.4   60.8    0    0   11    2    0    4  0.000  0.000  0.002  0.005  0.000  0.000
 End Juvenil-Floral Init    7  32.1  18.8  25.5  15.2  24.00  387.1    4.9   12.2   28.7    0    0    6    4    0    2  0.000  0.000  0.001  0.002  0.000  0.000
 Floral Init-End Lf Grow   39  29.7  18.7  24.2  15.5  24.00  387.2  205.2  139.3  146.9    0    0   13    4    1   18  0.000  0.000  0.000  0.000  0.000  0.000
 End Lf Grth-Beg Grn Fil   10  30.9  18.2  24.5  17.3  24.00  387.3    0.0   40.7   40.9    0    0    6    2    0    0  0.000  0.002  0.000  0.000  0.000  0.000
 Grain Filling Phase       43  32.5  18.6  25.5  17.7  24.00  387.5   58.6   81.8  191.0    0    0   38   22    6   10  0.599  0.668  0.000  0.000  0.000  0.000


 Planting to Harvest      121  31.3  18.6  24.9  16.6  23.97  387.3  295.4  311.2  509.2    0    0   81   35    7   39  0.232  0.259  0.000  0.001  0.000  0.000
----------------------------------------------------------------------------------------------------------------------------------------------------------------


*Resource Productivity
 Growing season length: 121 days 

 Precipitation during growing season       295.4 mm[rain]
   Dry Matter Productivity                  4.37 kg[DM]/m3[rain]          =   43.7 kg[DM]/ha per mm[rain]
   Yield Productivity                       1.68 kg[grain yield]/m3[rain] =   16.8 kg[yield]/ha per mm[rain]

 Evapotranspiration during growing season  311.2 mm[ET]
   Dry Matter Productivity                  4.15 kg[DM]/m3[ET]            =   41.5 kg[DM]/ha per mm[ET]
   Yield Productivity                       1.59 kg[grain yield]/m3[ET]   =   15.9 kg[yield]/ha per mm[ET]

 Transpiration during growing season       206.9 mm[EP]
   Dry Matter Productivity                  6.24 kg[DM]/m3[EP]            =   62.4 kg[DM]/ha per mm[EP]
   Yield Productivity                       2.39 kg[grain yield]/m3[EP]   =   23.9 kg[yield]/ha per mm[EP]

 N applied during growing season            161. kg[N applied]/ha
   Dry Matter Productivity                  80.2 kg[DM]/kg[N applied]
   Yield Productivity                       30.7 kg[yield]/kg[N applied]

 N uptake during growing season              153 kg[N uptake]/ha
   Dry Matter Productivity                  84.4 kg[DM]/kg[N uptake]
   Yield Productivity                       32.4 kg[yield]/kg[N uptake]

--------------------------------------------------------------------------------------------------------------

                     Maize YIELD :     4950 kg/ha    [Dry weight] 

**************************************************************************************************************

*DSSAT Cropping System Model Ver. 4.6.1.000 -release      OCT 02, 2017; 14:05:30
                                                                                
*RUN   8        : P05/07                    MZCER046 ANBU2009    8              
 MODEL          : MZCER046 - Maize                                              
 EXPERIMENT     : ANBU2009 MZ  Analisis a침os de bajo rendimiento Buga          
 DATA PATH      : C:\DSSAT46\maize\                                             
 TREATMENT  8   : P05/07                    MZCER046                            
                                                                                
                                                                                
 CROP           : Maize            CULTIVAR : DK7088           ECOTYPE :IB0001  
 STARTING DATE  : APR  7 2009                                                   
 PLANTING DATE  : MAY  7 2009        PLANTS/m2 :  6.2     ROW SPACING :  80.cm  
 WEATHER        : CUNI   2009                                                   
 SOIL           : CCBUGA2017     TEXTURE : CL    -   Suelo Buga MADR Fase I     
 SOIL INITIAL C : DEPTH: 90cm EXTR. H2O: 83.9mm  NO3:151.4kg/ha  NH4: 62.4kg/ha 
 WATER BALANCE  : RAINFED                                                       
 IRRIGATION     : NOT IRRIGATED                                                 
 NITROGEN BAL.  : SOIL-N & N-UPTAKE SIMULATION; NO N-FIXATION                   
 N-FERTILIZER   :      161 kg/ha IN     5 APPLICATIONS                          
 RESIDUE/MANURE : INITIAL :     0 kg/ha ;       0 kg/ha IN     0 APPLICATIONS   
 ENVIRONM. OPT. : DAYL=    0.00  SRAD=    0.00  TMAX=    0.00  TMIN=    0.00    
                  RAIN=    0.00  CO2 =    0.00  DEW =    0.00  WIND=    0.00    
 SIMULATION OPT : WATER   :Y  NITROGEN:Y  N-FIX:N  PHOSPH :N  PESTS  :N         
                  PHOTO   :C  ET      :R  INFIL:S  HYDROL :R  SOM    :G         
                  CO2 387ppm  NSWIT   :1  EVAP :S  SOIL   :2  STEMP  :D         
 MANAGEMENT OPT : PLANTING:R  IRRIG   :N  FERT :D  RESIDUE:R  HARVEST:M         
                  WEATHER :M  TILLAGE :N                                        
                                                                                
*SUMMARY OF SOIL AND GENETIC INPUT PARAMETERS                                   
                                                                                
   SOIL LOWER UPPER   SAT  EXTR  INIT   ROOT   BULK     pH    NO3    NH4    ORG 
  DEPTH LIMIT LIMIT    SW    SW    SW   DIST   DENS                          C  
   cm   cm3/cm3    cm3/cm3    cm3/cm3         g/cm3         ugN/g  ugN/g     %  
------------------------------------------------------------------------------- 
  0-  5 0.215 0.331 0.341 0.116 0.319   1.00   1.68   6.70  11.90   4.21   0.75 
  5- 15 0.215 0.331 0.341 0.116 0.319   1.00   1.68   6.70  11.90   4.21   0.75 
 15- 25 0.215 0.331 0.341 0.116 0.319   1.00   1.68   6.70  11.90   4.21   0.75 
 25- 35 0.181 0.291 0.364 0.110 0.331   0.50   1.61   7.20  12.15   4.32   0.53 
 35- 45 0.181 0.291 0.364 0.110 0.344   0.50   1.61   7.20  12.40   4.44   0.53 
 45- 67 0.096 0.169 0.404 0.073 0.290   0.27   1.51   7.00  10.67   4.47   0.05 
 67- 90 0.096 0.169 0.404 0.073 0.195   0.27   1.51   7.00   7.63   4.53   0.05 
                                                                                
TOT- 90  13.3  21.7  34.0   8.4  25.6  <--cm   -  kg/ha-->  151.4   62.4  51964 
SOIL ALBEDO    : 0.09      EVAPORATION LIMIT : 6.00         MIN. FACTOR  : 1.00 
RUNOFF CURVE # :76.00      DRAINAGE RATE     : 0.60         FERT. FACTOR : 1.00 
                                                                                
 Maize      CULTIVAR :CI0004-DK7088             ECOTYPE :IB0001                 
 P1     : 229.00  P2     : 0.3000  P5     : 971.00                              
 G2     : 957.00  G3     :  7.500  PHINT  : 45.000                              


*SIMULATED CROP AND SOIL STATUS AT MAIN DEVELOPMENT STAGES

 RUN NO.     8     P05/07                  

        CROP GROWTH     BIOMASS         LEAF   CROP N     STRESS      STRESS                                           
   DATE  AGE STAGE        kg/ha    LAI   NUM  kg/ha  %   H2O  Nitr Phos1 Phos2  RSTG                                   
 ------  --- ----------   -----  -----  ----  ---  ---  ----  ----  ----  ----  ----                                   
  7 APR    0 Start Sim        0   0.00   0.0    0  0.0  0.00  0.00  0.00  0.00     7
  7 MAY    0 Sowing           0   0.00   0.0    0  0.0  0.00  0.00  0.00  0.00     8
  8 MAY    1 Germinate        0   0.00   0.0    0  0.0  0.00  0.00  0.00  0.00     9
 13 MAY    6 Emergence       25   0.00   2.1    1  4.4  0.00  0.01  0.00  0.00     1
 25 MAY   18 End Juveni     118   0.25   7.5    4  3.3  0.01  0.00  0.00  0.00     2
  1 JUN   25 Floral Ini     352   0.63  10.3   13  3.6  0.00  0.00  0.00  0.00     3
  9 JUL   63 75% Silkin    6350   3.30  21.5  123  1.9  0.00  0.00  0.00  0.00     4
 19 JUL   73 Beg Gr Fil    8597   2.96  21.5  123  1.4  0.25  0.00  0.00  0.00     5
 31 AUG  116 End Gr Fil   11598   0.76  21.5  124  1.1  0.67  0.00  0.00  0.00     6
  2 SEP  118 Maturity     11598   0.76  21.5  124  1.1  0.79  0.00  0.00  0.00    10
[...]
 NITROGEN BAL.  : SOIL-N & N-UPTAKE SIMULATION; NO N-FIXATION                   
 N-FERTILIZER   :      161 kg/ha IN     5 APPLICATIONS                          
 RESIDUE/MANURE : INITIAL :     0 kg/ha ;       0 kg/ha IN     0 APPLICATIONS   
 ENVIRONM. OPT. : DAYL=    0.00  SRAD=    0.00  TMAX=    0.00  TMIN=    0.00    
                  RAIN=    0.00  CO2 =    0.00  DEW =    0.00  WIND=    0.00    
 SIMULATION OPT : WATER   :Y  NITROGEN:Y  N-FIX:N  PHOSPH :N  PESTS  :N         
                  PHOTO   :C  ET      :R  INFIL:S  HYDROL :R  SOM    :G         
                  CO2 388ppm  NSWIT   :1  EVAP :S  SOIL   :2  STEMP  :D         
 MANAGEMENT OPT : PLANTING:R  IRRIG   :N  FERT :D  RESIDUE:R  HARVEST:M         
                  WEATHER :M  TILLAGE :N                                        
                                                                                
*SUMMARY OF SOIL AND GENETIC INPUT PARAMETERS                                   
                                                                                
   SOIL LOWER UPPER   SAT  EXTR  INIT   ROOT   BULK     pH    NO3    NH4    ORG 
  DEPTH LIMIT LIMIT    SW    SW    SW   DIST   DENS                          C  
   cm   cm3/cm3    cm3/cm3    cm3/cm3         g/cm3         ugN/g  ugN/g     %  
------------------------------------------------------------------------------- 
  0-  5 0.215 0.331 0.341 0.116 0.319   1.00   1.68   6.70  11.90   4.21   0.75 
  5- 15 0.215 0.331 0.341 0.116 0.319   1.00   1.68   6.70  11.90   4.21   0.75 
 15- 25 0.215 0.331 0.341 0.116 0.319   1.00   1.68   6.70  11.90   4.21   0.75 
 25- 35 0.181 0.291 0.364 0.110 0.331   0.50   1.61   7.20  12.15   4.32   0.53 
 35- 45 0.181 0.291 0.364 0.110 0.344   0.50   1.61   7.20  12.40   4.44   0.53 
 45- 67 0.096 0.169 0.404 0.073 0.290   0.27   1.51   7.00  10.67   4.47   0.05 
 67- 90 0.096 0.169 0.404 0.073 0.195   0.27   1.51   7.00   7.63   4.53   0.05 
                                                                                
TOT- 90  13.3  21.7  34.0   8.4  25.6  <--cm   -  kg/ha-->  151.4   62.4  51964 
SOIL ALBEDO    : 0.09      EVAPORATION LIMIT : 6.00         MIN. FACTOR  : 1.00 
RUNOFF CURVE # :76.00      DRAINAGE RATE     : 0.60         FERT. FACTOR : 1.00 
                                                                                
 Maize      CULTIVAR :CI0004-DK7088             ECOTYPE :IB0001                 
 P1     : 229.00  P2     : 0.3000  P5     : 971.00                              
 G2     : 957.00  G3     :  7.500  PHINT  : 45.000                              


*SIMULATED CROP AND SOIL STATUS AT MAIN DEVELOPMENT STAGES

 RUN NO.    35     P12/14                  

        CROP GROWTH     BIOMASS         LEAF   CROP N     STRESS      STRESS                                           
   DATE  AGE STAGE        kg/ha    LAI   NUM  kg/ha  %   H2O  Nitr Phos1 Phos2  RSTG                                   
 ------  --- ----------   -----  -----  ----  ---  ---  ----  ----  ----  ----  ----                                   
 14 NOV    0 Start Sim        0   0.00   0.0    0  0.0  0.00  0.00  0.00  0.00     7
 14 DEC    0 Sowing           0   0.00   0.0    0  0.0  0.00  0.00  0.00  0.00     8
 15 DEC    1 Germinate        0   0.00   0.0    0  0.0  0.00  0.00  0.00  0.00     9
 20 DEC    6 Emergence       25   0.00   2.1    1  4.4  0.00  0.01  0.00  0.00     1
  2 JAN   19 End Juveni      97   0.21   7.8    3  3.3  0.00  0.00  0.00  0.00     2
  6 JAN   23 Floral Ini     236   0.45   9.4    9  3.7  0.00  0.00  0.00  0.00     3
  6 FEB   54 75% Silkin    2863   1.39  19.4   69  2.4  0.47  0.00  0.00  0.00     4
 16 FEB   64 Beg Gr Fil    2882   0.91  19.4   69  2.4  0.89  0.00  0.00  0.00     5
 27 MAR  103 End Gr Fil    3660   0.24  19.4   69  1.9  0.74  0.00  0.00  0.00     6
 30 MAR  106 Maturity      3660   0.24  19.4   69  1.9  0.00  0.00  0.00  0.00    10
 30 MAR  106 Harvest       3660   0.24  19.4   69  1.9  0.00  0.00  0.00  0.00    10


*MAIN GROWTH AND DEVELOPMENT VARIABLES

@     VARIABLE                                         SIMULATED     MEASURED
      --------                                         ---------     --------
      Anthesis day (dap)                                      54          -99
      Physiological maturity day (dap)                       106          -99
      Yield at harvest maturity (kg [dm]/ha)                 939          -99
      Number at maturity (no/m2)                             544          -99
      Unit wt at maturity (g [dm]/unit)                   0.1726          -99
      Number at maturity (no/unit)                          99.2          -99
      Tops weight at maturity (kg [dm]/ha)                  3660          -99
      By-product produced (stalk) at maturity (kg[dm]/ha    2760          -99
      Leaf area index, maximum                              2.04          -99
      Harvest index at maturity                            0.257          -99
      Grain N at maturity (kg/ha)                             17          -99
      Tops N at maturity (kg/ha)                              69          -99
      Stem N at maturity (kg/ha)                              49          -99
      Grain N at maturity (%)                                1.9          -99
      Tops weight at anthesis (kg [dm]/ha)                  2848          -99
      Tops N at anthesis (kg/ha)                              69          -99
      Leaf number per stem at maturity                     19.44          -99
      Emergence day (dap)                                      6          -99


*ENVIRONMENTAL AND STRESS FACTORS

 |-----Development Phase------|--------------------------------------Environment--------------------------------------|-----------------Stress-----------------|
                              |---------------Average--------------|-----Cumulative-----|--------Count of days--------|          (0=Min, 1=Max Stress)         |
                         Time  Temp  Temp  Temp Solar Photop                Evapo    Pot TMIN TMIN TMAX TMAX TMAX RAIN|----Water----|---Nitrogen--|-Phosphorus-|
                         Span   Max   Min  Mean   Rad  [day]    CO2   Rain  Trans     ET   <    <    >    >    >    >   Photo         Photo         Photo
                         days    邂    邂    邂 MJ/m2     hr    ppm     mm     mm     mm  0邂  2邂 30邂 32邂 34邂  0mm  synth Growth  synth Growth  synth Growth
----------------------------------------------------------------------------------------------------------------------------------------------------------------
 Emergence-End Juvenile    13  30.8  19.0  24.9  16.2   0.00  388.5   30.6   36.6   58.8    0    0    7    3    0    4  0.000  0.000  0.002  0.005  0.000  0.000
 End Juvenil-Floral Init    4  31.8  18.0  24.9  18.1   0.00  388.5    0.0    6.4   19.7    0    0    3    2    0    0  0.000  0.000  0.001  0.003  0.000  0.000
 Floral Init-End Lf Grow   31  33.5  18.8  26.2  18.4   0.00  388.7    2.8   63.6  148.1    0    0   29   21   12    4  0.351  0.450  0.000  0.000  0.000  0.000
 End Lf Grth-Beg Grn Fil   10  32.4  19.9  26.2  17.7   0.00  388.8   13.2   12.3   46.0    0    0    8    7    2    2  0.813  0.876  0.000  0.000  0.000  0.000
 Grain Filling Phase       39  33.7  20.3  27.0  16.5   5.84  389.1   64.9   48.9  179.8    0    0   37   33   15   13  0.689  0.761  0.000  0.000  0.000  0.000


 Planting to Harvest      106  32.9  19.6  26.2  17.0   2.54  388.8  130.3  182.9  489.8    0    0   90   71   29   26  0.433  0.494  0.000  0.001  0.000  0.000
----------------------------------------------------------------------------------------------------------------------------------------------------------------


*Resource Productivity
 Growing season length: 106 days 

 Precipitation during growing season       130.3 mm[rain]
   Dry Matter Productivity                  2.81 kg[DM]/m3[rain]          =   28.1 kg[DM]/ha per mm[rain]
   Yield Productivity                       0.72 kg[grain yield]/m3[rain] =    7.2 kg[yield]/ha per mm[rain]

 Evapotranspiration during growing season  182.9 mm[ET]
   Dry Matter Productivity                  2.00 kg[DM]/m3[ET]            =   20.0 kg[DM]/ha per mm[ET]
   Yield Productivity                       0.51 kg[grain yield]/m3[ET]   =    5.1 kg[yield]/ha per mm[ET]

 Transpiration during growing season        76.2 mm[EP]
   Dry Matter Productivity                  4.80 kg[DM]/m3[EP]            =   48.0 kg[DM]/ha per mm[EP]
   Yield Productivity                       1.23 kg[grain yield]/m3[EP]   =   12.3 kg[yield]/ha per mm[EP]

 N applied during growing season            161. kg[N applied]/ha
   Dry Matter Productivity                  22.7 kg[DM]/kg[N applied]
   Yield Productivity                        5.8 kg[yield]/kg[N applied]

 N uptake during growing season               77 kg[N uptake]/ha
   Dry Matter Productivity                  47.5 kg[DM]/kg[N uptake]
   Yield Productivity                       12.2 kg[yield]/kg[N uptake]

--------------------------------------------------------------------------------------------------------------

                     Maize YIELD :      939 kg/ha    [Dry weight] 

**************************************************************************************************************

*DSSAT Cropping System Model Ver. 4.6.1.000 -release      OCT 02, 2017; 14:05:34
                                                                                
*RUN  36        : P12/19                    MZCER046 ANBU2009   36              
 MODEL          : MZCER046 - Maize                                              
 EXPERIMENT     : ANBU2009 MZ  Analisis a침os de bajo rendimiento Buga          
 DATA PATH      : C:\DSSAT46\maize\                                             
 TREATMENT 36   : P12/19                    MZCER046                            
                                                                                
                                                                                
 CROP           : Maize            CULTIVAR : DK7088           ECOTYPE :IB0001  
 STARTING DATE  : NOV 19 2009                                                   
 PLANTING DATE  : DEC 19 2009        PLANTS/m2 :  6.2     ROW SPACING :  80.cm  
 WEATHER        : CUNI   2009                                                   
 SOIL           : CCBUGA2017     TEXTURE : CL    -   Suelo Buga MADR Fase I     
 SOIL INITIAL C : DEPTH: 90cm EXTR. H2O: 83.9mm  NO3:151.4kg/ha  NH4: 62.4kg/ha 
 WATER BALANCE  : RAINFED                                                       
 IRRIGATION     : NOT IRRIGATED                                                 
 NITROGEN BAL.  : SOIL-N & N-UPTAKE SIMULATION; NO N-FIXATION                   
 N-FERTILIZER   :      161 kg/ha IN     5 APPLICATIONS                          
 RESIDUE/MANURE : INITIAL :     0 kg/ha ;       0 kg/ha IN     0 APPLICATIONS   
 ENVIRONM. OPT. : DAYL=    0.00  SRAD=    0.00  TMAX=    0.00  TMIN=    0.00    
                  RAIN=    0.00  CO2 =    0.00  DEW =    0.00  WIND=    0.00    
 SIMULATION OPT : WATER   :Y  NITROGEN:Y  N-FIX:N  PHOSPH :N  PESTS  :N         
                  PHOTO   :C  ET      :R  INFIL:S  HYDROL :R  SOM    :G         
                  CO2 388ppm  NSWIT   :1  EVAP :S  SOIL   :2  STEMP  :D         
 MANAGEMENT OPT : PLANTING:R  IRRIG   :N  FERT :D  RESIDUE:R  HARVEST:M         
                  WEATHER :M  TILLAGE :N                                        
                                                                                
*SUMMARY OF SOIL AND GENETIC INPUT PARAMETERS                                   
                                                                                
   SOIL LOWER UPPER   SAT  EXTR  INIT   ROOT   BULK     pH    NO3    NH4    ORG 
  DEPTH LIMIT LIMIT    SW    SW    SW   DIST   DENS                          C  
   cm   cm3/cm3    cm3/cm3    cm3/cm3         g/cm3         ugN/g  ugN/g     %  
------------------------------------------------------------------------------- 
  0-  5 0.215 0.331 0.341 0.116 0.319   1.00   1.68   6.70  11.90   4.21   0.75 
  5- 15 0.215 0.331 0.341 0.116 0.319   1.00   1.68   6.70  11.90   4.21   0.75 
 15- 25 0.215 0.331 0.341 0.116 0.319   1.00   1.68   6.70  11.90   4.21   0.75 
 25- 35 0.181 0.291 0.364 0.110 0.331   0.50   1.61   7.20  12.15   4.32   0.53 
 35- 45 0.181 0.291 0.364 0.110 0.344   0.50   1.61   7.20  12.40   4.44   0.53 
 45- 67 0.096 0.169 0.404 0.073 0.290   0.27   1.51   7.00  10.67   4.47   0.05 
 67- 90 0.096 0.169 0.404 0.073 0.195   0.27   1.51   7.00   7.63   4.53   0.05 
                                                                                
TOT- 90  13.3  21.7  34.0   8.4  25.6  <--cm   -  kg/ha-->  151.4   62.4  51964 
SOIL ALBEDO    : 0.09      EVAPORATION LIMIT : 6.00         MIN. FACTOR  : 1.00 
RUNOFF CURVE # :76.00      DRAINAGE RATE     : 0.60         FERT. FACTOR : 1.00 
                                                                                
 Maize      CULTIVAR :CI0004-DK7088             ECOTYPE :IB0001                 
 P1     : 229.00  P2     : 0.3000  P5     : 971.00                              
 G2     : 957.00  G3     :  7.500  PHINT  : 45.000                              


*SIMULATED CROP AND SOIL STATUS AT MAIN DEVELOPMENT STAGES

 RUN NO.    36     P12/19                  

        CROP GROWTH     BIOMASS         LEAF   CROP N     STRESS      STRESS                                           
   DATE  AGE STAGE        kg/ha    LAI   NUM  kg/ha  %   H2O  Nitr Phos1 Phos2  RSTG                                   
 ------  --- ----------   -----  -----  ----  ---  ---  ----  ----  ----  ----  ----                                   
 19 NOV    0 Start Sim        0   0.00   0.0    0  0.0  0.00  0.00  0.00  0.00     7
 19 DEC    0 Sowing           0   0.00   0.0    0  0.0  0.00  0.00  0.00  0.00     8
 20 DEC    1 Germinate        0   0.00   0.0    0  0.0  0.00  0.00  0.00  0.00     9
 25 DEC    6 Emergence       25   0.00   2.1    1  4.4  0.00  0.01  0.00  0.00     1
  7 JAN   19 End Juveni     116   0.24   7.9    4  3.2  0.00  0.00  0.00  0.00     2
 11 JAN   23 Floral Ini     276   0.51   9.5   10  3.7  0.00  0.00  0.00  0.00     3
 12 FEB   55 75% Silkin    2915   1.37  20.1   68  2.3  0.51  0.00  0.00  0.00     4
 21 FEB   64 Beg Gr Fil    2848   0.92  20.1   68  2.4  0.91  0.00  0.00  0.00     5
  1 APR  103 End Gr Fil    3839   0.30  20.1   68  1.8  0.63  0.00  0.00  0.00     6
  4 APR  106 Maturity      3839   0.30  20.1   68  1.8  0.00  0.00  0.00  0.00    10
  4 APR  106 Harvest       3839   0.30  20.1   68  1.8  0.00  0.00  0.00  0.00    10


*MAIN GROWTH AND DEVELOPMENT VARIABLES

@     VARIABLE                                         SIMULATED     MEASURED
      --------                                         ---------     --------
      Anthesis day (dap)                                      55          -99
      Physiological maturity day (dap)                       106          -99
      Yield at harvest maturity (kg [dm]/ha)                 858          -99
      Number at maturity (no/m2)                             456          -99
      Unit wt at maturity (g [dm]/unit)                   0.1882          -99
      Number at maturity (no/unit)                          86.8          -99
      Tops weight at maturity (kg [dm]/ha)                  3839          -99
      By-product produced (stalk) at maturity (kg[dm]/ha    3023          -99
      Leaf area index, maximum                              2.09          -99
      Harvest index at maturity                            0.223          -99
      Grain N at maturity (kg/ha)                             16          -99
      Tops N at maturity (kg/ha)                              68          -99
      Stem N at maturity (kg/ha)                              50          -99
      Grain N at maturity (%)                                1.8          -99
      Tops weight at anthesis (kg [dm]/ha)                  2901          -99
      Tops N at anthesis (kg/ha)                              68          -99
      Leaf number per stem at maturity                     20.12          -99
      Emergence day (dap)                                      6          -99


*ENVIRONMENTAL AND STRESS FACTORS

 |-----Development Phase------|--------------------------------------Environment--------------------------------------|-----------------Stress-----------------|
                              |---------------Average--------------|-----Cumulative-----|--------Count of days--------|          (0=Min, 1=Max Stress)         |
                         Time  Temp  Temp  Temp Solar Photop                Evapo    Pot TMIN TMIN TMAX TMAX TMAX RAIN|----Water----|---Nitrogen--|-Phosphorus-|
                         Span   Max   Min  Mean   Rad  [day]    CO2   Rain  Trans     ET   <    <    >    >    >    >   Photo         Photo         Photo
                         days    邂    邂    邂 MJ/m2     hr    ppm     mm     mm     mm  0邂  2邂 30邂 32邂 34邂  0mm  synth Growth  synth Growth  synth Growth
----------------------------------------------------------------------------------------------------------------------------------------------------------------
 Emergence-End Juvenile    13  31.3  18.7  25.0  17.1   0.00  388.5   21.6   26.9   62.1    0    0    9    4    0    3  0.000  0.000  0.002  0.004  0.000  0.000
 End Juvenil-Floral Init    4  32.6  19.1  25.9  18.0   0.00  388.5    1.4    5.8   19.7    0    0    4    2    0    2  0.000  0.000  0.002  0.004  0.000  0.000
 Floral Init-End Lf Grow   32  33.3  19.0  26.1  18.2   0.00  388.7   14.6   65.6  150.5    0    0   28   22   13    4  0.370  0.479  0.000  0.000  0.000  0.000
 End Lf Grth-Beg Grn Fil    9  33.9  20.1  27.0  16.5   0.00  388.9    4.2   11.4   39.4    0    0    9    9    2    1  0.855  0.904  0.000  0.000  0.000  0.000
 Grain Filling Phase       39  33.6  20.4  27.0  16.5   7.68  389.1   82.2   57.1  178.6    0    0   37   32   14   13  0.592  0.652  0.000  0.000  0.000  0.000


 Planting to Harvest      106  33.0  19.6  26.3  17.2   3.27  388.9  143.0  194.1  493.1    0    0   92   71   29   25  0.402  0.461  0.000  0.001  0.000  0.000
----------------------------------------------------------------------------------------------------------------------------------------------------------------


*Resource Productivity
 Growing season length: 106 days 

 Precipitation during growing season       143.0 mm[rain]
   Dry Matter Productivity                  2.68 kg[DM]/m3[rain]          =   26.8 kg[DM]/ha per mm[rain]
   Yield Productivity                       0.60 kg[grain yield]/m3[rain] =    6.0 kg[yield]/ha per mm[rain]

 Evapotranspiration during growing season  194.1 mm[ET]
   Dry Matter Productivity                  1.98 kg[DM]/m3[ET]            =   19.8 kg[DM]/ha per mm[ET]
   Yield Productivity                       0.44 kg[grain yield]/m3[ET]   =    4.4 kg[yield]/ha per mm[ET]

 Transpiration during growing season        81.9 mm[EP]
   Dry Matter Productivity                  4.69 kg[DM]/m3[EP]            =   46.9 kg[DM]/ha per mm[EP]
   Yield Productivity                       1.05 kg[grain yield]/m3[EP]   =   10.5 kg[yield]/ha per mm[EP]

 N applied during growing season            161. kg[N applied]/ha
   Dry Matter Productivity                  23.8 kg[DM]/kg[N applied]
   Yield Productivity                        5.3 kg[yield]/kg[N applied]

 N uptake during growing season               77 kg[N uptake]/ha
   Dry Matter Productivity                  49.9 kg[DM]/kg[N uptake]
   Yield Productivity                       11.1 kg[yield]/kg[N uptake]

--------------------------------------------------------------------------------------------------------------

                     Maize YIELD :      858 kg/ha    [Dry weight] 

**************************************************************************************************************
