*SIMULATION OVERVIEW FILE

*DSSAT Cropping System Model Ver. 4.6.1.000 -release      OCT 02, 2017; 13:29:02
                                                                                
*RUN   1        : P04/02                    MZCER046 ANBU1997    1              
 MODEL          : MZCER046 - Maize                                              
 EXPERIMENT     : ANBU1997 MZ  Analisis a침os de bajo rendimiento Buga          
 DATA PATH      : C:\DSSAT46\maize\                                             
 TREATMENT  1   : P04/02                    MZCER046                            
                                                                                
                                                                                
 CROP           : Maize            CULTIVAR : DK234            ECOTYPE :IB0001  
 STARTING DATE  : MAR  3 1997                                                   
 PLANTING DATE  : APR  2 1997        PLANTS/m2 :  6.2     ROW SPACING :  80.cm  
 WEATHER        : CUNI   1997                                                   
 SOIL           : CCBUGA2017     TEXTURE : CL    -   Suelo Buga MADR Fase I     
 SOIL INITIAL C : DEPTH: 90cm EXTR. H2O: 83.9mm  NO3:151.4kg/ha  NH4: 62.4kg/ha 
 WATER BALANCE  : RAINFED                                                       
 IRRIGATION     : NOT IRRIGATED                                                 
 NITROGEN BAL.  : SOIL-N & N-UPTAKE SIMULATION; NO N-FIXATION                   
 N-FERTILIZER   :      161 kg/ha IN     5 APPLICATIONS                          
 RESIDUE/MANURE : INITIAL :     0 kg/ha ;       0 kg/ha IN     0 APPLICATIONS   
 ENVIRONM. OPT. : DAYL=    0.00  SRAD=    0.00  TMAX=    0.00  TMIN=    0.00    
                  RAIN=    0.00  CO2 =    0.00  DEW =    0.00  WIND=    0.00    
 SIMULATION OPT : WATER   :Y  NITROGEN:Y  N-FIX:N  PHOSPH :N  PESTS  :N         
                  PHOTO   :C  ET      :R  INFIL:S  HYDROL :R  SOM    :G         
                  CO2 363ppm  NSWIT   :1  EVAP :S  SOIL   :2  STEMP  :D         
 MANAGEMENT OPT : PLANTING:R  IRRIG   :N  FERT :D  RESIDUE:R  HARVEST:M         
                  WEATHER :M  TILLAGE :N                                        
                                                                                
*SUMMARY OF SOIL AND GENETIC INPUT PARAMETERS                                   
                                                                                
   SOIL LOWER UPPER   SAT  EXTR  INIT   ROOT   BULK     pH    NO3    NH4    ORG 
  DEPTH LIMIT LIMIT    SW    SW    SW   DIST   DENS                          C  
   cm   cm3/cm3    cm3/cm3    cm3/cm3         g/cm3         ugN/g  ugN/g     %  
------------------------------------------------------------------------------- 
  0-  5 0.215 0.331 0.341 0.116 0.319   1.00   1.68   6.70  11.90   4.21   0.75 
  5- 15 0.215 0.331 0.341 0.116 0.319   1.00   1.68   6.70  11.90   4.21   0.75 
 15- 25 0.215 0.331 0.341 0.116 0.319   1.00   1.68   6.70  11.90   4.21   0.75 
 25- 35 0.181 0.291 0.364 0.110 0.331   0.50   1.61   7.20  12.15   4.32   0.53 
 35- 45 0.181 0.291 0.364 0.110 0.344   0.50   1.61   7.20  12.40   4.44   0.53 
 45- 67 0.096 0.169 0.404 0.073 0.290   0.27   1.51   7.00  10.67   4.47   0.05 
 67- 90 0.096 0.169 0.404 0.073 0.195   0.27   1.51   7.00   7.63   4.53   0.05 
                                                                                
TOT- 90  13.3  21.7  34.0   8.4  25.6  <--cm   -  kg/ha-->  151.4   62.4  51964 
SOIL ALBEDO    : 0.09      EVAPORATION LIMIT : 6.00         MIN. FACTOR  : 1.00 
RUNOFF CURVE # :76.00      DRAINAGE RATE     : 0.60         FERT. FACTOR : 1.00 
                                                                                
 Maize      CULTIVAR :CI0002-DK234              ECOTYPE :IB0001                 
 P1     : 300.00  P2     : 0.4000  P5     :1075.00                              
 G2     : 890.00  G3     :  7.750  PHINT  : 40.000                              


*SIMULATED CROP AND SOIL STATUS AT MAIN DEVELOPMENT STAGES

 RUN NO.     1     P04/02                  

        CROP GROWTH     BIOMASS         LEAF   CROP N     STRESS      STRESS                                           
   DATE  AGE STAGE        kg/ha    LAI   NUM  kg/ha  %   H2O  Nitr Phos1 Phos2  RSTG                                   
 ------  --- ----------   -----  -----  ----  ---  ---  ----  ----  ----  ----  ----                                   
  3 MAR    0 Start Sim        0   0.00   0.0    0  0.0  0.00  0.00  0.00  0.00     7
  2 APR    0 Sowing           0   0.00   0.0    0  0.0  0.00  0.00  0.00  0.00     8
  3 APR    1 Germinate        0   0.00   0.0    0  0.0  0.00  0.00  0.00  0.00     9
  8 APR    6 Emergence       25   0.00   2.2    1  4.4  0.00  0.01  0.00  0.00     1
 25 APR   23 End Juveni     247   0.47  10.2    9  3.7  0.00  0.00  0.00  0.00     2
  2 MAY   30 Floral Ini     774   1.19  13.1   28  3.6  0.00  0.00  0.00  0.00     3
 12 JUN   71 75% Silkin    8687   4.71  27.1  180  2.1  0.00  0.00  0.00  0.00     4
 22 JUN   81 Beg Gr Fil   10796   4.49  27.1  180  1.7  0.00  0.00  0.00  0.00     5
 11 AUG  131 End Gr Fil   17398   1.46  27.1  219  1.3  0.50  0.00  0.00  0.00     6
 14 AUG  134 Maturity     17398   1.46  27.1  219  1.3  0.90  0.00  0.00  0.00    10
 14 AUG  134 Harvest      17398   1.46  27.1  219  1.3  0.00  0.00  0.00  0.00    10


*MAIN GROWTH AND DEVELOPMENT VARIABLES

@     VARIABLE                                         SIMULATED     MEASURED
      --------                                         ---------     --------
      Anthesis day (dap)                                      71          -99
      Physiological maturity day (dap)                       134          -99
      Yield at harvest maturity (kg [dm]/ha)                8286          -99
      Number at maturity (no/m2)                            2794          -99
      Unit wt at maturity (g [dm]/unit)                   0.2965          -99
      Number at maturity (no/unit)                         450.7          -99
      Tops weight at maturity (kg [dm]/ha)                 17398          -99
      By-product produced (stalk) at maturity (kg[dm]/ha    9196          -99
      Leaf area index, maximum                              4.74          -99
      Harvest index at maturity                            0.476          -99
      Grain N at maturity (kg/ha)                            147          -99
      Tops N at maturity (kg/ha)                             219          -99
      Stem N at maturity (kg/ha)                              71          -99
      Grain N at maturity (%)                                1.8          -99
      Tops weight at anthesis (kg [dm]/ha)                  8468          -99
      Tops N at anthesis (kg/ha)                             177          -99
      Leaf number per stem at maturity                     27.14          -99
      Emergence day (dap)                                      6          -99


*ENVIRONMENTAL AND STRESS FACTORS

 |-----Development Phase------|--------------------------------------Environment--------------------------------------|-----------------Stress-----------------|
                              |---------------Average--------------|-----Cumulative-----|--------Count of days--------|          (0=Min, 1=Max Stress)         |
                         Time  Temp  Temp  Temp Solar Photop                Evapo    Pot TMIN TMIN TMAX TMAX TMAX RAIN|----Water----|---Nitrogen--|-Phosphorus-|
                         Span   Max   Min  Mean   Rad  [day]    CO2   Rain  Trans     ET   <    <    >    >    >    >   Photo         Photo         Photo
                         days    邂    邂    邂 MJ/m2     hr    ppm     mm     mm     mm  0邂  2邂 30邂 32邂 34邂  0mm  synth Growth  synth Growth  synth Growth
----------------------------------------------------------------------------------------------------------------------------------------------------------------
 Emergence-End Juvenile    17  30.5  19.7  25.1  14.9  22.48  363.4   79.0   46.2   70.4    0    0   11    5    0    8  0.000  0.004  0.002  0.004  0.000  0.000
 End Juvenil-Floral Init    7  30.3  18.7  24.5  16.9  24.00  363.4   33.0   26.1   31.0    0    0    3    2    0    2  0.000  0.000  0.001  0.001  0.000  0.000
 Floral Init-End Lf Grow   41  29.7  18.8  24.3  14.4  24.00  363.5  201.0  136.5  140.7    0    0   20    5    0   16  0.000  0.000  0.000  0.000  0.000  0.000
 End Lf Grth-Beg Grn Fil   10  30.0  18.8  24.4  14.8  24.00  363.6   10.0   34.5   34.6    0    0    5    0    0    2  0.000  0.000  0.000  0.000  0.000  0.000
 Grain Filling Phase       50  32.3  18.1  25.2  17.9  24.00  363.7   78.0  130.2  218.4    0    0   45   23   10    9  0.424  0.479  0.000  0.000  0.000  0.000


 Planting to Harvest      134  31.0  18.7  24.8  16.1  23.49  363.6  412.0  382.9  537.8    0    0   91   41   10   39  0.177  0.199  0.000  0.001  0.000  0.000
----------------------------------------------------------------------------------------------------------------------------------------------------------------


*Resource Productivity
 Growing season length: 134 days 

 Precipitation during growing season       412.0 mm[rain]
   Dry Matter Productivity                  4.22 kg[DM]/m3[rain]          =   42.2 kg[DM]/ha per mm[rain]
   Yield Productivity                       2.01 kg[grain yield]/m3[rain] =   20.1 kg[yield]/ha per mm[rain]

 Evapotranspiration during growing season  382.9 mm[ET]
   Dry Matter Productivity                  4.54 kg[DM]/m3[ET]            =   45.4 kg[DM]/ha per mm[ET]
   Yield Productivity                       2.16 kg[grain yield]/m3[ET]   =   21.6 kg[yield]/ha per mm[ET]

 Transpiration during growing season       274.6 mm[EP]
   Dry Matter Productivity                  6.34 kg[DM]/m3[EP]            =   63.4 kg[DM]/ha per mm[EP]
   Yield Productivity                       3.02 kg[grain yield]/m3[EP]   =   30.2 kg[yield]/ha per mm[EP]

 N applied during growing season            161. kg[N applied]/ha
   Dry Matter Productivity                 108.1 kg[DM]/kg[N applied]
   Yield Productivity                       51.5 kg[yield]/kg[N applied]

 N uptake during growing season              239 kg[N uptake]/ha
   Dry Matter Productivity                  72.8 kg[DM]/kg[N uptake]
   Yield Productivity                       34.7 kg[yield]/kg[N uptake]

--------------------------------------------------------------------------------------------------------------

                     Maize YIELD :     8286 kg/ha    [Dry weight] 

**************************************************************************************************************

*DSSAT Cropping System Model Ver. 4.6.1.000 -release      OCT 02, 2017; 13:29:02
                                                                                
*RUN   2        : P04/07                    MZCER046 ANBU1997    2              
 MODEL          : MZCER046 - Maize                                              
 EXPERIMENT     : ANBU1997 MZ  Analisis a침os de bajo rendimiento Buga          
 DATA PATH      : C:\DSSAT46\maize\                                             
 TREATMENT  2   : P04/07                    MZCER046                            
                                                                                
                                                                                
 CROP           : Maize            CULTIVAR : DK234            ECOTYPE :IB0001  
 STARTING DATE  : MAR  8 1997                                                   
 PLANTING DATE  : APR  7 1997        PLANTS/m2 :  6.2     ROW SPACING :  80.cm  
 WEATHER        : CUNI   1997                                                   
 SOIL           : CCBUGA2017     TEXTURE : CL    -   Suelo Buga MADR Fase I     
 SOIL INITIAL C : DEPTH: 90cm EXTR. H2O: 83.9mm  NO3:151.4kg/ha  NH4: 62.4kg/ha 
 WATER BALANCE  : RAINFED                                                       
 IRRIGATION     : NOT IRRIGATED                                                 
 NITROGEN BAL.  : SOIL-N & N-UPTAKE SIMULATION; NO N-FIXATION                   
 N-FERTILIZER   :      161 kg/ha IN     5 APPLICATIONS                          
 RESIDUE/MANURE : INITIAL :     0 kg/ha ;       0 kg/ha IN     0 APPLICATIONS   
 ENVIRONM. OPT. : DAYL=    0.00  SRAD=    0.00  TMAX=    0.00  TMIN=    0.00    
                  RAIN=    0.00  CO2 =    0.00  DEW =    0.00  WIND=    0.00    
 SIMULATION OPT : WATER   :Y  NITROGEN:Y  N-FIX:N  PHOSPH :N  PESTS  :N         
                  PHOTO   :C  ET      :R  INFIL:S  HYDROL :R  SOM    :G         
                  CO2 363ppm  NSWIT   :1  EVAP :S  SOIL   :2  STEMP  :D         
 MANAGEMENT OPT : PLANTING:R  IRRIG   :N  FERT :D  RESIDUE:R  HARVEST:M         
                  WEATHER :M  TILLAGE :N                                        
                                                                                
*SUMMARY OF SOIL AND GENETIC INPUT PARAMETERS                                   
                                                                                
   SOIL LOWER UPPER   SAT  EXTR  INIT   ROOT   BULK     pH    NO3    NH4    ORG 
  DEPTH LIMIT LIMIT    SW    SW    SW   DIST   DENS                          C  
   cm   cm3/cm3    cm3/cm3    cm3/cm3         g/cm3         ugN/g  ugN/g     %  
------------------------------------------------------------------------------- 
  0-  5 0.215 0.331 0.341 0.116 0.319   1.00   1.68   6.70  11.90   4.21   0.75 
  5- 15 0.215 0.331 0.341 0.116 0.319   1.00   1.68   6.70  11.90   4.21   0.75 
 15- 25 0.215 0.331 0.341 0.116 0.319   1.00   1.68   6.70  11.90   4.21   0.75 
 25- 35 0.181 0.291 0.364 0.110 0.331   0.50   1.61   7.20  12.15   4.32   0.53 
 35- 45 0.181 0.291 0.364 0.110 0.344   0.50   1.61   7.20  12.40   4.44   0.53 
 45- 67 0.096 0.169 0.404 0.073 0.290   0.27   1.51   7.00  10.67   4.47   0.05 
 67- 90 0.096 0.169 0.404 0.073 0.195   0.27   1.51   7.00   7.63   4.53   0.05 
                                                                                
TOT- 90  13.3  21.7  34.0   8.4  25.6  <--cm   -  kg/ha-->  151.4   62.4  51964 
SOIL ALBEDO    : 0.09      EVAPORATION LIMIT : 6.00         MIN. FACTOR  : 1.00 
RUNOFF CURVE # :76.00      DRAINAGE RATE     : 0.60         FERT. FACTOR : 1.00 
                                                                                
 Maize      CULTIVAR :CI0002-DK234              ECOTYPE :IB0001                 
 P1     : 300.00  P2     : 0.4000  P5     :1075.00                              
 G2     : 890.00  G3     :  7.750  PHINT  : 40.000                              


*SIMULATED CROP AND SOIL STATUS AT MAIN DEVELOPMENT STAGES

 RUN NO.     2     P04/07                  

        CROP GROWTH     BIOMASS         LEAF   CROP N     STRESS      STRESS                                           
   DATE  AGE STAGE        kg/ha    LAI   NUM  kg/ha  %   H2O  Nitr Phos1 Phos2  RSTG                                   
 ------  --- ----------   -----  -----  ----  ---  ---  ----  ----  ----  ----  ----                                   
  8 MAR    0 Start Sim        0   0.00   0.0    0  0.0  0.00  0.00  0.00  0.00     7
  7 APR    0 Sowing           0   0.00   0.0    0  0.0  0.00  0.00  0.00  0.00     8
  8 APR    1 Germinate        0   0.00   0.0    0  0.0  0.00  0.00  0.00  0.00     9
 13 APR    6 Emergence       25   0.00   2.2    1  4.4  0.00  0.01  0.00  0.00     1
 30 APR   23 End Juveni     242   0.46  10.1    8  3.2  0.01  0.00  0.00  0.00     2
  8 MAY   31 Floral Ini     930   1.37  13.6   33  3.6  0.00  0.00  0.00  0.00     3
 19 JUN   73 75% Silkin    8632   4.69  28.1  174  2.0  0.00  0.00  0.00  0.00     4
 29 JUN   83 Beg Gr Fil   10863   4.47  28.1  175  1.6  0.00  0.00  0.00  0.00     5
 17 AUG  132 End Gr Fil   16191   1.13  28.1  194  1.2  0.62  0.00  0.00  0.00     6
 20 AUG  135 Maturity     16191   1.13  28.1  194  1.2  1.00  0.00  0.00  0.00    10
 20 AUG  135 Harvest      16191   1.13  28.1  194  1.2  0.00  0.00  0.00  0.00    10


*MAIN GROWTH AND DEVELOPMENT VARIABLES

@     VARIABLE                                         SIMULATED     MEASURED
      --------                                         ---------     --------
      Anthesis day (dap)                                      73          -99
      Physiological maturity day (dap)                       135          -99
      Yield at harvest maturity (kg [dm]/ha)                6897          -99
      Number at maturity (no/m2)                            2894          -99
      Unit wt at maturity (g [dm]/unit)                   0.2383          -99
      Number at maturity (no/unit)                         466.8          -99
      Tops weight at maturity (kg [dm]/ha)                 16191          -99
      By-product produced (stalk) at maturity (kg[dm]/ha    9378          -99
      Leaf area index, maximum                              4.71          -99
      Harvest index at maturity                            0.426          -99
      Grain N at maturity (kg/ha)                            124          -99
      Tops N at maturity (kg/ha)                             194          -99
      Stem N at maturity (kg/ha)                              70          -99
      Grain N at maturity (%)                                1.8          -99
      Tops weight at anthesis (kg [dm]/ha)                  8411          -99
      Tops N at anthesis (kg/ha)                             173          -99
      Leaf number per stem at maturity                     28.10          -99
      Emergence day (dap)                                      6          -99


*ENVIRONMENTAL AND STRESS FACTORS

 |-----Development Phase------|--------------------------------------Environment--------------------------------------|-----------------Stress-----------------|
                              |---------------Average--------------|-----Cumulative-----|--------Count of days--------|          (0=Min, 1=Max Stress)         |
                         Time  Temp  Temp  Temp Solar Photop                Evapo    Pot TMIN TMIN TMAX TMAX TMAX RAIN|----Water----|---Nitrogen--|-Phosphorus-|
                         Span   Max   Min  Mean   Rad  [day]    CO2   Rain  Trans     ET   <    <    >    >    >    >   Photo         Photo         Photo
                         days    邂    邂    邂 MJ/m2     hr    ppm     mm     mm     mm  0邂  2邂 30邂 32邂 34邂  0mm  synth Growth  synth Growth  synth Growth
----------------------------------------------------------------------------------------------------------------------------------------------------------------
 Emergence-End Juvenile    17  30.0  19.4  24.7  15.4  23.81  363.4  105.0   58.5   72.5    0    0    9    4    0    8  0.000  0.007  0.002  0.004  0.000  0.000
 End Juvenil-Floral Init    8  31.6  18.4  25.0  16.3  24.00  363.4   14.0   20.5   34.3    0    0    7    3    0    2  0.000  0.000  0.000  0.001  0.000  0.000
 Floral Init-End Lf Grow   42  29.5  18.9  24.2  14.1  24.00  363.5  197.0  139.3  140.9    0    0   18    3    0   16  0.000  0.000  0.000  0.000  0.000  0.000
 End Lf Grth-Beg Grn Fil   10  30.4  18.4  24.4  15.4  24.00  363.7    8.0   36.0   36.1    0    0    6    1    0    3  0.000  0.000  0.000  0.000  0.000  0.000
 Grain Filling Phase       49  32.7  18.1  25.4  18.4  24.00  363.8   72.2  110.9  221.8    0    0   47   27   10    8  0.540  0.602  0.000  0.000  0.000  0.000


 Planting to Harvest      135  31.0  18.6  24.8  16.2  23.76  363.6  403.2  373.6  545.1    0    0   93   42   11   39  0.218  0.241  0.000  0.001  0.000  0.000
----------------------------------------------------------------------------------------------------------------------------------------------------------------


*Resource Productivity
 Growing season length: 135 days 

 Precipitation during growing season       403.2 mm[rain]
   Dry Matter Productivity                  4.02 kg[DM]/m3[rain]          =   40.2 kg[DM]/ha per mm[rain]
   Yield Productivity                       1.71 kg[grain yield]/m3[rain] =   17.1 kg[yield]/ha per mm[rain]

 Evapotranspiration during growing season  373.6 mm[ET]
   Dry Matter Productivity                  4.33 kg[DM]/m3[ET]            =   43.3 kg[DM]/ha per mm[ET]
   Yield Productivity                       1.85 kg[grain yield]/m3[ET]   =   18.5 kg[yield]/ha per mm[ET]

 Transpiration during growing season       255.1 mm[EP]
   Dry Matter Productivity                  6.35 kg[DM]/m3[EP]            =   63.5 kg[DM]/ha per mm[EP]
   Yield Productivity                       2.70 kg[grain yield]/m3[EP]   =   27.0 kg[yield]/ha per mm[EP]

 N applied during growing season            161. kg[N applied]/ha
   Dry Matter Productivity                 100.6 kg[DM]/kg[N applied]
   Yield Productivity                       42.8 kg[yield]/kg[N applied]

 N uptake during growing season              214 kg[N uptake]/ha
   Dry Matter Productivity                  75.7 kg[DM]/kg[N uptake]
   Yield Productivity                       32.2 kg[yield]/kg[N uptake]

--------------------------------------------------------------------------------------------------------------

                     Maize YIELD :     6897 kg/ha    [Dry weight] 

**************************************************************************************************************

*DSSAT Cropping System Model Ver. 4.6.1.000 -release      OCT 02, 2017; 13:29:02
                                                                                
*RUN   3        : P04/12                    MZCER046 ANBU1997    3              
 MODEL          : MZCER046 - Maize                                              
 EXPERIMENT     : ANBU1997 MZ  Analisis a침os de bajo rendimiento Buga          
 DATA PATH      : C:\DSSAT46\maize\                                             
 TREATMENT  3   : P04/12                    MZCER046                            
                                                                                
                                                                                
 CROP           : Maize            CULTIVAR : DK234            ECOTYPE :IB0001  
 STARTING DATE  : MAR 13 1997                                                   
 PLANTING DATE  : APR 12 1997        PLANTS/m2 :  6.2     ROW SPACING :  80.cm  
 WEATHER        : CUNI   1997                                                   
 SOIL           : CCBUGA2017     TEXTURE : CL    -   Suelo Buga MADR Fase I     
 SOIL INITIAL C : DEPTH: 90cm EXTR. H2O: 83.9mm  NO3:151.4kg/ha  NH4: 62.4kg/ha 
 WATER BALANCE  : RAINFED                                                       
 IRRIGATION     : NOT IRRIGATED                                                 
 NITROGEN BAL.  : SOIL-N & N-UPTAKE SIMULATION; NO N-FIXATION                   
 N-FERTILIZER   :      161 kg/ha IN     5 APPLICATIONS                          
 RESIDUE/MANURE : INITIAL :     0 kg/ha ;       0 kg/ha IN     0 APPLICATIONS   
 ENVIRONM. OPT. : DAYL=    0.00  SRAD=    0.00  TMAX=    0.00  TMIN=    0.00    
                  RAIN=    0.00  CO2 =    0.00  DEW =    0.00  WIND=    0.00    
 SIMULATION OPT : WATER   :Y  NITROGEN:Y  N-FIX:N  PHOSPH :N  PESTS  :N         
                  PHOTO   :C  ET      :R  INFIL:S  HYDROL :R  SOM    :G         
                  CO2 363ppm  NSWIT   :1  EVAP :S  SOIL   :2  STEMP  :D         
 MANAGEMENT OPT : PLANTING:R  IRRIG   :N  FERT :D  RESIDUE:R  HARVEST:M         
                  WEATHER :M  TILLAGE :N                                        
                                                                                
*SUMMARY OF SOIL AND GENETIC INPUT PARAMETERS                                   
                                                                                
   SOIL LOWER UPPER   SAT  EXTR  INIT   ROOT   BULK     pH    NO3    NH4    ORG 
  DEPTH LIMIT LIMIT    SW    SW    SW   DIST   DENS                          C  
   cm   cm3/cm3    cm3/cm3    cm3/cm3         g/cm3         ugN/g  ugN/g     %  
------------------------------------------------------------------------------- 
  0-  5 0.215 0.331 0.341 0.116 0.319   1.00   1.68   6.70  11.90   4.21   0.75 
  5- 15 0.215 0.331 0.341 0.116 0.319   1.00   1.68   6.70  11.90   4.21   0.75 
 15- 25 0.215 0.331 0.341 0.116 0.319   1.00   1.68   6.70  11.90   4.21   0.75 
 25- 35 0.181 0.291 0.364 0.110 0.331   0.50   1.61   7.20  12.15   4.32   0.53 
 35- 45 0.181 0.291 0.364 0.110 0.344   0.50   1.61   7.20  12.40   4.44   0.53 
 45- 67 0.096 0.169 0.404 0.073 0.290   0.27   1.51   7.00  10.67   4.47   0.05 
 67- 90 0.096 0.169 0.404 0.073 0.195   0.27   1.51   7.00   7.63   4.53   0.05 
                                                                                
TOT- 90  13.3  21.7  34.0   8.4  25.6  <--cm   -  kg/ha-->  151.4   62.4  51964 
SOIL ALBEDO    : 0.09      EVAPORATION LIMIT : 6.00         MIN. FACTOR  : 1.00 
RUNOFF CURVE # :76.00      DRAINAGE RATE     : 0.60         FERT. FACTOR : 1.00 
                                                                                
 Maize      CULTIVAR :CI0002-DK234              ECOTYPE :IB0001                 
 P1     : 300.00  P2     : 0.4000  P5     :1075.00                              
 G2     : 890.00  G3     :  7.750  PHINT  : 40.000                              


*SIMULATED CROP AND SOIL STATUS AT MAIN DEVELOPMENT STAGES

 RUN NO.     3     P04/12                  

        CROP GROWTH     BIOMASS         LEAF   CROP N     STRESS      STRESS                                           
   DATE  AGE STAGE        kg/ha    LAI   NUM  kg/ha  %   H2O  Nitr Phos1 Phos2  RSTG                                   
 ------  --- ----------   -----  -----  ----  ---  ---  ----  ----  ----  ----  ----                                   
 13 MAR    0 Start Sim        0   0.00   0.0    0  0.0  0.00  0.00  0.00  0.00     7
 12 APR    0 Sowing           0   0.00   0.0    0  0.0  0.00  0.00  0.00  0.00     8
 13 APR    1 Germinate        0   0.00   0.0    0  0.0  0.00  0.00  0.00  0.00     9
 18 APR    6 Emergence       25   0.00   2.2    1  4.4  0.00  0.01  0.00  0.00     1
  5 MAY   23 End Juveni     293   0.54  10.0   10  3.3  0.00  0.01  0.00  0.00     2
 13 MAY   31 Floral Ini     848   1.27  13.4   30  3.6  0.00  0.00  0.00  0.00     3
 24 JUN   73 75% Silkin    9132   4.89  28.0  183  2.0  0.00  0.00  0.00  0.00     4
  4 JUL   83 Beg Gr Fil   11674   4.60  28.0  183  1.6  0.00  0.00  0.00  0.00     5
 22 AUG  132 End Gr Fil   16181   0.92  28.0  186  1.1  0.73  0.00  0.00  0.00     6
 25 AUG  135 Maturity     16181   0.92  28.0  186  1.1  0.99  0.00  0.00  0.00    10
 25 AUG  135 Harvest      16181   0.92  28.0  186  1.1  0.00  0.00  0.00  0.00    10


*MAIN GROWTH AND DEVELOPMENT VARIABLES

@     VARIABLE                                         SIMULATED     MEASURED
      --------                                         ---------     --------
      Anthesis day (dap)                                      73          -99
      Physiological maturity day (dap)                       135          -99
      Yield at harvest maturity (kg [dm]/ha)                5922          -99
      Number at maturity (no/m2)                            3126          -99
      Unit wt at maturity (g [dm]/unit)                   0.1894          -99
      Number at maturity (no/unit)                         504.2          -99
      Tops weight at maturity (kg [dm]/ha)                 16181          -99
      By-product produced (stalk) at maturity (kg[dm]/ha   10349          -99
      Leaf area index, maximum                              4.92          -99
      Harvest index at maturity                            0.366          -99
      Grain N at maturity (kg/ha)                            107          -99
      Tops N at maturity (kg/ha)                             186          -99
      Stem N at maturity (kg/ha)                              78          -99
      Grain N at maturity (%)                                1.8          -99
      Tops weight at anthesis (kg [dm]/ha)                  8990          -99
      Tops N at anthesis (kg/ha)                             183          -99
      Leaf number per stem at maturity                     27.98          -99
      Emergence day (dap)                                      6          -99


*ENVIRONMENTAL AND STRESS FACTORS

 |-----Development Phase------|--------------------------------------Environment--------------------------------------|-----------------Stress-----------------|
                              |---------------Average--------------|-----Cumulative-----|--------Count of days--------|          (0=Min, 1=Max Stress)         |
                         Time  Temp  Temp  Temp Solar Photop                Evapo    Pot TMIN TMIN TMAX TMAX TMAX RAIN|----Water----|---Nitrogen--|-Phosphorus-|
                         Span   Max   Min  Mean   Rad  [day]    CO2   Rain  Trans     ET   <    <    >    >    >    >   Photo         Photo         Photo
                         days    邂    邂    邂 MJ/m2     hr    ppm     mm     mm     mm  0邂  2邂 30邂 32邂 34邂  0mm  synth Growth  synth Growth  synth Growth
----------------------------------------------------------------------------------------------------------------------------------------------------------------
 Emergence-End Juvenile    17  30.0  18.9  24.5  15.2  24.00  363.4   73.0   49.0   71.3    0    0    8    4    0    8  0.000  0.000  0.003  0.007  0.000  0.000
 End Juvenil-Floral Init    8  30.7  18.8  24.7  15.7  24.00  363.4   46.0   24.2   32.8    0    0    6    2    0    4  0.000  0.000  0.000  0.001  0.000  0.000
 Floral Init-End Lf Grow   42  29.6  18.9  24.2  14.3  24.00  363.6  163.0  141.4  142.6    0    0   18    2    0   13  0.000  0.000  0.000  0.000  0.000  0.000
 End Lf Grth-Beg Grn Fil   10  30.7  17.9  24.3  16.7  24.00  363.7   25.0   38.9   39.0    0    0    7    1    0    5  0.000  0.000  0.000  0.000  0.000  0.000
 Grain Filling Phase       49  32.9  18.2  25.5  18.4  24.00  363.8   55.2   90.0  224.5    0    0   48   31   13    6  0.642  0.706  0.000  0.000  0.000  0.000


 Planting to Harvest      135  31.2  18.5  24.9  16.4  23.95  363.6  396.2  364.1  554.5    0    0   96   46   14   37  0.255  0.278  0.000  0.001  0.000  0.000
----------------------------------------------------------------------------------------------------------------------------------------------------------------


*Resource Productivity
 Growing season length: 135 days 

 Precipitation during growing season       396.2 mm[rain]
   Dry Matter Productivity                  4.08 kg[DM]/m3[rain]          =   40.8 kg[DM]/ha per mm[rain]
   Yield Productivity                       1.49 kg[grain yield]/m3[rain] =   14.9 kg[yield]/ha per mm[rain]

 Evapotranspiration during growing season  364.1 mm[ET]
   Dry Matter Productivity                  4.44 kg[DM]/m3[ET]            =   44.4 kg[DM]/ha per mm[ET]
   Yield Productivity                       1.63 kg[grain yield]/m3[ET]   =   16.3 kg[yield]/ha per mm[ET]

 Transpiration during growing season       239.8 mm[EP]
   Dry Matter Productivity                  6.75 kg[DM]/m3[EP]            =   67.5 kg[DM]/ha per mm[EP]
   Yield Productivity                       2.47 kg[grain yield]/m3[EP]   =   24.7 kg[yield]/ha per mm[EP]

 N applied during growing season            161. kg[N applied]/ha
   Dry Matter Productivity                 100.5 kg[DM]/kg[N applied]
   Yield Productivity                       36.8 kg[yield]/kg[N applied]

 N uptake during growing season              201 kg[N uptake]/ha
   Dry Matter Productivity                  80.5 kg[DM]/kg[N uptake]
   Yield Productivity                       29.5 kg[yield]/kg[N uptake]

--------------------------------------------------------------------------------------------------------------

                     Maize YIELD :     5922 kg/ha    [Dry weight] 

**************************************************************************************************************

*DSSAT Cropping System Model Ver. 4.6.1.000 -release      OCT 02, 2017; 13:29:03
                                                                                
*RUN   4        : P04/17                    MZCER046 ANBU1997    4              
 MODEL          : MZCER046 - Maize                                              
 EXPERIMENT     : ANBU1997 MZ  Analisis a침os de bajo rendimiento Buga          
 DATA PATH      : C:\DSSAT46\maize\                                             
 TREATMENT  4   : P04/17                    MZCER046                            
                                                                                
                                                                                
 CROP           : Maize            CULTIVAR : DK234            ECOTYPE :IB0001  
 STARTING DATE  : MAR 18 1997                                                   
 PLANTING DATE  : APR 17 1997        PLANTS/m2 :  6.2     ROW SPACING :  80.cm  
 WEATHER        : CUNI   1997                                                   
 SOIL           : CCBUGA2017     TEXTURE : CL    -   Suelo Buga MADR Fase I     
 SOIL INITIAL C : DEPTH: 90cm EXTR. H2O: 83.9mm  NO3:151.4kg/ha  NH4: 62.4kg/ha 
 WATER BALANCE  : RAINFED                                                       
 IRRIGATION     : NOT IRRIGATED                                                 
 NITROGEN BAL.  : SOIL-N & N-UPTAKE SIMULATION; NO N-FIXATION                   
 N-FERTILIZER   :      161 kg/ha IN     5 APPLICATIONS                          
 RESIDUE/MANURE : INITIAL :     0 kg/ha ;       0 kg/ha IN     0 APPLICATIONS   
 ENVIRONM. OPT. : DAYL=    0.00  SRAD=    0.00  TMAX=    0.00  TMIN=    0.00    
                  RAIN=    0.00  CO2 =    0.00  DEW =    0.00  WIND=    0.00    
 SIMULATION OPT : WATER   :Y  NITROGEN:Y  N-FIX:N  PHOSPH :N  PESTS  :N         
                  PHOTO   :C  ET      :R  INFIL:S  HYDROL :R  SOM    :G         
                  CO2 363ppm  NSWIT   :1  EVAP :S  SOIL   :2  STEMP  :D         
 MANAGEMENT OPT : PLANTING:R  IRRIG   :N  FERT :D  RESIDUE:R  HARVEST:M         
                  WEATHER :M  TILLAGE :N                                        
                                                                                
*SUMMARY OF SOIL AND GENETIC INPUT PARAMETERS                                   
                                                                                
   SOIL LOWER UPPER   SAT  EXTR  INIT   ROOT   BULK     pH    NO3    NH4    ORG 
  DEPTH LIMIT LIMIT    SW    SW    SW   DIST   DENS                          C  
   cm   cm3/cm3    cm3/cm3    cm3/cm3         g/cm3         ugN/g  ugN/g     %  
------------------------------------------------------------------------------- 
  0-  5 0.215 0.331 0.341 0.116 0.319   1.00   1.68   6.70  11.90   4.21   0.75 
  5- 15 0.215 0.331 0.341 0.116 0.319   1.00   1.68   6.70  11.90   4.21   0.75 
 15- 25 0.215 0.331 0.341 0.116 0.319   1.00   1.68   6.70  11.90   4.21   0.75 
 25- 35 0.181 0.291 0.364 0.110 0.331   0.50   1.61   7.20  12.15   4.32   0.53 
 35- 45 0.181 0.291 0.364 0.110 0.344   0.50   1.61   7.20  12.40   4.44   0.53 
 45- 67 0.096 0.169 0.404 0.073 0.290   0.27   1.51   7.00  10.67   4.47   0.05 
 67- 90 0.096 0.169 0.404 0.073 0.195   0.27   1.51   7.00   7.63   4.53   0.05 
                                                                                
TOT- 90  13.3  21.7  34.0   8.4  25.6  <--cm   -  kg/ha-->  151.4   62.4  51964 
SOIL ALBEDO    : 0.09      EVAPORATION LIMIT : 6.00         MIN. FACTOR  : 1.00 
RUNOFF CURVE # :76.00      DRAINAGE RATE     : 0.60         FERT. FACTOR : 1.00 
                                                                                
 Maize      CULTIVAR :CI0002-DK234              ECOTYPE :IB0001                 
 P1     : 300.00  P2     : 0.4000  P5     :1075.00                              
 G2     : 890.00  G3     :  7.750  PHINT  : 40.000                              


*SIMULATED CROP AND SOIL STATUS AT MAIN DEVELOPMENT STAGES

 RUN NO.     4     P04/17                  

        CROP GROWTH     BIOMASS         LEAF   CROP N     STRESS      STRESS                                           
   DATE  AGE STAGE        kg/ha    LAI   NUM  kg/ha  %   H2O  Nitr Phos1 Phos2  RSTG                                   
 ------  --- ----------   -----  -----  ----  ---  ---  ----  ----  ----  ----  ----                                   
 18 MAR    0 Start Sim        0   0.00   0.0    0  0.0  0.00  0.00  0.00  0.00     7
 17 APR    0 Sowing           0   0.00   0.0    0  0.0  0.00  0.00  0.00  0.00     8
 18 APR    1 Germinate        0   0.00   0.0    0  0.0  0.00  0.00  0.00  0.00     9
 23 APR    6 Emergence       25   0.00   2.2    1  4.4  0.00  0.01  0.00  0.00     1
 10 MAY   23 End Juveni     345   0.62  10.2   11  3.3  0.00  0.00  0.00  0.00     2
 18 MAY   31 Floral Ini     966   1.42  13.5   35  3.6  0.00  0.00  0.00  0.00     3
 28 JUN   72 75% Silkin    9419   4.91  27.6  195  2.1  0.00  0.00  0.00  0.00     4
  8 JUL   82 Beg Gr Fil   11941   4.43  27.6  195  1.6  0.21  0.00  0.00  0.00     5
 26 AUG  131 End Gr Fil   15677   0.77  27.6  195  1.2  0.77  0.00  0.00  0.00     6
 29 AUG  134 Maturity     15677   0.77  27.6  195  1.2  0.98  0.00  0.00  0.00    10
 29 AUG  134 Harvest      15677   0.77  27.6  195  1.2  0.00  0.00  0.00  0.00    10


*MAIN GROWTH AND DEVELOPMENT VARIABLES

@     VARIABLE                                         SIMULATED     MEASURED
      --------                                         ---------     --------
      Anthesis day (dap)                                      72          -99
      Physiological maturity day (dap)                       134          -99
      Yield at harvest maturity (kg [dm]/ha)                5546          -99
      Number at maturity (no/m2)                            3311          -99
      Unit wt at maturity (g [dm]/unit)                   0.1675          -99
      Number at maturity (no/unit)                         534.0          -99
      Tops weight at maturity (kg [dm]/ha)                 15677          -99
      By-product produced (stalk) at maturity (kg[dm]/ha   10221          -99
      Leaf area index, maximum                              4.95          -99
      Harvest index at maturity                            0.354          -99
      Grain N at maturity (kg/ha)                            101          -99
      Tops N at maturity (kg/ha)                             195          -99
      Stem N at maturity (kg/ha)                              94          -99
      Grain N at maturity (%)                                1.8          -99
      Tops weight at anthesis (kg [dm]/ha)                  9129          -99
      Tops N at anthesis (kg/ha)                             194          -99
      Leaf number per stem at maturity                     27.63          -99
      Emergence day (dap)                                      6          -99


*ENVIRONMENTAL AND STRESS FACTORS

 |-----Development Phase------|--------------------------------------Environment--------------------------------------|-----------------Stress-----------------|
                              |---------------Average--------------|-----Cumulative-----|--------Count of days--------|          (0=Min, 1=Max Stress)         |
                         Time  Temp  Temp  Temp Solar Photop                Evapo    Pot TMIN TMIN TMAX TMAX TMAX RAIN|----Water----|---Nitrogen--|-Phosphorus-|
                         Span   Max   Min  Mean   Rad  [day]    CO2   Rain  Trans     ET   <    <    >    >    >    >   Photo         Photo         Photo
                         days    邂    邂    邂 MJ/m2     hr    ppm     mm     mm     mm  0邂  2邂 30邂 32邂 34邂  0mm  synth Growth  synth Growth  synth Growth
----------------------------------------------------------------------------------------------------------------------------------------------------------------
 Emergence-End Juvenile    17  30.8  18.6  24.7  16.8  24.00  363.4   59.0   45.8   78.7    0    0   11    5    0    5  0.000  0.003  0.002  0.006  0.000  0.000
 End Juvenil-Floral Init    8  29.6  18.7  24.2  15.9  24.00  363.5   28.0   31.7   32.7    0    0    4    0    0    4  0.000  0.000  0.000  0.001  0.000  0.000
 Floral Init-End Lf Grow   41  29.6  18.9  24.2  13.9  24.00  363.6  165.0  132.9  134.5    0    0   17    3    0   14  0.000  0.000  0.000  0.000  0.000  0.000
 End Lf Grth-Beg Grn Fil   10  31.4  17.7  24.6  19.4  24.00  363.7   17.0   41.7   45.6    0    0    9    2    0    2  0.088  0.159  0.000  0.000  0.000  0.000
 Grain Filling Phase       49  33.0  18.1  25.6  18.4  24.00  363.8   55.2   75.8  225.7    0    0   48   33   14    6  0.707  0.758  0.000  0.000  0.000  0.000


 Planting to Harvest      134  31.2  18.5  24.8  16.3  24.00  363.6  363.1  341.0  548.5    0    0   95   47   15   37  0.287  0.311  0.000  0.001  0.000  0.000
----------------------------------------------------------------------------------------------------------------------------------------------------------------


*Resource Productivity
 Growing season length: 134 days 

 Precipitation during growing season       363.1 mm[rain]
   Dry Matter Productivity                  4.32 kg[DM]/m3[rain]          =   43.2 kg[DM]/ha per mm[rain]
   Yield Productivity                       1.53 kg[grain yield]/m3[rain] =   15.3 kg[yield]/ha per mm[rain]

 Evapotranspiration during growing season  341.0 mm[ET]
   Dry Matter Productivity                  4.60 kg[DM]/m3[ET]            =   46.0 kg[DM]/ha per mm[ET]
   Yield Productivity                       1.63 kg[grain yield]/m3[ET]   =   16.3 kg[yield]/ha per mm[ET]

 Transpiration during growing season       225.6 mm[EP]
   Dry Matter Productivity                  6.95 kg[DM]/m3[EP]            =   69.5 kg[DM]/ha per mm[EP]
   Yield Productivity                       2.46 kg[grain yield]/m3[EP]   =   24.6 kg[yield]/ha per mm[EP]

 N applied during growing season            161. kg[N applied]/ha
   Dry Matter Productivity                  97.4 kg[DM]/kg[N applied]
   Yield Productivity                       34.4 kg[yield]/kg[N applied]

 N uptake during growing season              208 kg[N uptake]/ha
   Dry Matter Productivity                  75.4 kg[DM]/kg[N uptake]
   Yield Productivity                       26.7 kg[yield]/kg[N uptake]

--------------------------------------------------------------------------------------------------------------

                     Maize YIELD :     5546 kg/ha    [Dry weight] 

**************************************************************************************************************

*DSSAT Cropping System Model Ver. 4.6.1.000 -release      OCT 02, 2017; 13:29:03
                                                                                
*RUN   5        : P04/22                    MZCER046 ANBU1997    5              
 MODEL          : MZCER046 - Maize                                              
 EXPERIMENT     : ANBU1997 MZ  Analisis a침os de bajo rendimiento Buga          
 DATA PATH      : C:\DSSAT46\maize\                                             
 TREATMENT  5   : P04/22                    MZCER046                            
                                                                                
                                                                                
 CROP           : Maize            CULTIVAR : DK234            ECOTYPE :IB0001  
 STARTING DATE  : MAR 23 1997                                                   
 PLANTING DATE  : APR 22 1997        PLANTS/m2 :  6.2     ROW SPACING :  80.cm  
 WEATHER        : CUNI   1997                                                   
 SOIL           : CCBUGA2017     TEXTURE : CL    -   Suelo Buga MADR Fase I     
 SOIL INITIAL C : DEPTH: 90cm EXTR. H2O: 83.9mm  NO3:151.4kg/ha  NH4: 62.4kg/ha 
 WATER BALANCE  : RAINFED                                                       
 IRRIGATION     : NOT IRRIGATED                                                 
 NITROGEN BAL.  : SOIL-N & N-UPTAKE SIMULATION; NO N-FIXATION                   
 N-FERTILIZER   :      161 kg/ha IN     5 APPLICATIONS                          
 RESIDUE/MANURE : INITIAL :     0 kg/ha ;       0 kg/ha IN     0 APPLICATIONS   
 ENVIRONM. OPT. : DAYL=    0.00  SRAD=    0.00  TMAX=    0.00  TMIN=    0.00    
                  RAIN=    0.00  CO2 =    0.00  DEW =    0.00  WIND=    0.00    
 SIMULATION OPT : WATER   :Y  NITROGEN:Y  N-FIX:N  PHOSPH :N  PESTS  :N         
                  PHOTO   :C  ET      :R  INFIL:S  HYDROL :R  SOM    :G         
                  CO2 363ppm  NSWIT   :1  EVAP :S  SOIL   :2  STEMP  :D         
 MANAGEMENT OPT : PLANTING:R  IRRIG   :N  FERT :D  RESIDUE:R  HARVEST:M         
                  WEATHER :M  TILLAGE :N                                        
                                                                                
*SUMMARY OF SOIL AND GENETIC INPUT PARAMETERS                                   
                                                                                
   SOIL LOWER UPPER   SAT  EXTR  INIT   ROOT   BULK     pH    NO3    NH4    ORG 
  DEPTH LIMIT LIMIT    SW    SW    SW   DIST   DENS                          C  
   cm   cm3/cm3    cm3/cm3    cm3/cm3         g/cm3         ugN/g  ugN/g     %  
------------------------------------------------------------------------------- 
  0-  5 0.215 0.331 0.341 0.116 0.319   1.00   1.68   6.70  11.90   4.21   0.75 
  5- 15 0.215 0.331 0.341 0.116 0.319   1.00   1.68   6.70  11.90   4.21   0.75 
 15- 25 0.215 0.331 0.341 0.116 0.319   1.00   1.68   6.70  11.90   4.21   0.75 
 25- 35 0.181 0.291 0.364 0.110 0.331   0.50   1.61   7.20  12.15   4.32   0.53 
 35- 45 0.181 0.291 0.364 0.110 0.344   0.50   1.61   7.20  12.40   4.44   0.53 
 45- 67 0.096 0.169 0.404 0.073 0.290   0.27   1.51   7.00  10.67   4.47   0.05 
 67- 90 0.096 0.169 0.404 0.073 0.195   0.27   1.51   7.00   7.63   4.53   0.05 
                                                                                
TOT- 90  13.3  21.7  34.0   8.4  25.6  <--cm   -  kg/ha-->  151.4   62.4  51964 
SOIL ALBEDO    : 0.09      EVAPORATION LIMIT : 6.00         MIN. FACTOR  : 1.00 
RUNOFF CURVE # :76.00      DRAINAGE RATE     : 0.60         FERT. FACTOR : 1.00 
                                                                                
 Maize      CULTIVAR :CI0002-DK234              ECOTYPE :IB0001                 
 P1     : 300.00  P2     : 0.4000  P5     :1075.00                              
 G2     : 890.00  G3     :  7.750  PHINT  : 40.000                              


*SIMULATED CROP AND SOIL STATUS AT MAIN DEVELOPMENT STAGES

 RUN NO.     5     P04/22                  

        CROP GROWTH     BIOMASS         LEAF   CROP N     STRESS      STRESS                                           
   DATE  AGE STAGE        kg/ha    LAI   NUM  kg/ha  %   H2O  Nitr Phos1 Phos2  RSTG                                   
 ------  --- ----------   -----  -----  ----  ---  ---  ----  ----  ----  ----  ----                                   
 23 MAR    0 Start Sim        0   0.00   0.0    0  0.0  0.00  0.00  0.00  0.00     7
 22 APR    0 Sowing           0   0.00   0.0    0  0.0  0.00  0.00  0.00  0.00     8
 23 APR    1 Germinate        0   0.00   0.0    0  0.0  0.00  0.00  0.00  0.00     9
 28 APR    6 Emergence       25   0.00   2.2    1  4.4  0.00  0.01  0.00  0.00     1
 15 MAY   23 End Juveni     266   0.50  10.2    9  3.5  0.00  0.00  0.00  0.00     2
 23 MAY   31 Floral Ini     950   1.40  13.6   34  3.6  0.00  0.00  0.00  0.00     3
  4 JUL   73 75% Silkin    9915   4.98  28.1  196  2.0  0.00  0.00  0.00  0.00     4
 14 JUL   83 Beg Gr Fil   10779   3.76  28.1  196  1.8  0.69  0.00  0.00  0.00     5
 31 AUG  131 End Gr Fil   13585   0.63  28.1  196  1.4  0.78  0.00  0.00  0.00     6
  3 SEP  134 Maturity     13585   0.63  28.1  196  1.4  1.00  0.00  0.00  0.00    10
  3 SEP  134 Harvest      13585   0.63  28.1  196  1.4  0.00  0.00  0.00  0.00    10


*MAIN GROWTH AND DEVELOPMENT VARIABLES

@     VARIABLE                                         SIMULATED     MEASURED
      --------                                         ---------     --------
      Anthesis day (dap)                                      73          -99
      Physiological maturity day (dap)                       134          -99
      Yield at harvest maturity (kg [dm]/ha)                4279          -99
      Number at maturity (no/m2)                            1951          -99
      Unit wt at maturity (g [dm]/unit)                   0.2194          -99
      Number at maturity (no/unit)                         314.6          -99
      Tops weight at maturity (kg [dm]/ha)                 13585          -99
      By-product produced (stalk) at maturity (kg[dm]/ha    9398          -99
      Leaf area index, maximum                              5.03          -99
      Harvest index at maturity                            0.315          -99
      Grain N at maturity (kg/ha)                             79          -99
      Tops N at maturity (kg/ha)                             196          -99
      Stem N at maturity (kg/ha)                             117          -99
      Grain N at maturity (%)                                1.8          -99
      Tops weight at anthesis (kg [dm]/ha)                  9572          -99
      Tops N at anthesis (kg/ha)                             195          -99
      Leaf number per stem at maturity                     28.08          -99
      Emergence day (dap)                                      6          -99


*ENVIRONMENTAL AND STRESS FACTORS

 |-----Development Phase------|--------------------------------------Environment--------------------------------------|-----------------Stress-----------------|
                              |---------------Average--------------|-----Cumulative-----|--------Count of days--------|          (0=Min, 1=Max Stress)         |
                         Time  Temp  Temp  Temp Solar Photop                Evapo    Pot TMIN TMIN TMAX TMAX TMAX RAIN|----Water----|---Nitrogen--|-Phosphorus-|
                         Span   Max   Min  Mean   Rad  [day]    CO2   Rain  Trans     ET   <    <    >    >    >    >   Photo         Photo         Photo
                         days    邂    邂    邂 MJ/m2     hr    ppm     mm     mm     mm  0邂  2邂 30邂 32邂 34邂  0mm  synth Growth  synth Growth  synth Growth
----------------------------------------------------------------------------------------------------------------------------------------------------------------
 Emergence-End Juvenile    17  31.0  18.6  24.8  16.8  24.00  363.4   54.0   42.2   78.9    0    0   12    5    0    7  0.000  0.000  0.002  0.005  0.000  0.000
 End Juvenil-Floral Init    8  30.9  18.8  24.8  14.8  24.00  363.5   12.0   21.2   30.8    0    0    6    1    0    1  0.000  0.000  0.000  0.001  0.000  0.000
 Floral Init-End Lf Grow   42  29.6  18.6  24.1  14.7  24.00  363.6  170.0  143.5  145.4    0    0   18    2    0   15  0.000  0.000  0.000  0.000  0.000  0.000
 End Lf Grth-Beg Grn Fil   10  31.8  18.3  25.1  18.8  24.00  363.7    0.0   23.9   44.6    0    0    9    3    1    0  0.457  0.604  0.000  0.000  0.000  0.000
 Grain Filling Phase       48  33.3  18.0  25.6  18.2  23.93  363.9   56.1   68.7  221.5    0    0   48   37   15    7  0.746  0.782  0.000  0.000  0.000  0.000


 Planting to Harvest      134  31.3  18.4  24.9  16.6  23.89  363.7  354.1  324.9  557.9    0    0   97   50   16   34  0.324  0.348  0.000  0.001  0.000  0.000
----------------------------------------------------------------------------------------------------------------------------------------------------------------


*Resource Productivity
 Growing season length: 134 days 

 Precipitation during growing season       354.1 mm[rain]
   Dry Matter Productivity                  3.84 kg[DM]/m3[rain]          =   38.4 kg[DM]/ha per mm[rain]
   Yield Productivity                       1.21 kg[grain yield]/m3[rain] =   12.1 kg[yield]/ha per mm[rain]

 Evapotranspiration during growing season  324.9 mm[ET]
   Dry Matter Productivity                  4.18 kg[DM]/m3[ET]            =   41.8 kg[DM]/ha per mm[ET]
   Yield Productivity                       1.32 kg[grain yield]/m3[ET]   =   13.2 kg[yield]/ha per mm[ET]

 Transpiration during growing season       210.3 mm[EP]
   Dry Matter Productivity                  6.46 kg[DM]/m3[EP]            =   64.6 kg[DM]/ha per mm[EP]
   Yield Productivity                       2.03 kg[grain yield]/m3[EP]   =   20.3 kg[yield]/ha per mm[EP]

 N applied during growing season            161. kg[N applied]/ha
   Dry Matter Productivity                  84.4 kg[DM]/kg[N applied]
   Yield Productivity                       26.6 kg[yield]/kg[N applied]

 N uptake during growing season              211 kg[N uptake]/ha
   Dry Matter Productivity                  64.4 kg[DM]/kg[N uptake]
   Yield Productivity                       20.3 kg[yield]/kg[N uptake]

--------------------------------------------------------------------------------------------------------------

                     Maize YIELD :     4279 kg/ha    [Dry weight] 

**************************************************************************************************************

*DSSAT Cropping System Model Ver. 4.6.1.000 -release      OCT 02, 2017; 13:29:03
                                                                                
*RUN   6        : P04/27                    MZCER046 ANBU1997    6              
 MODEL          : MZCER046 - Maize                                              
 EXPERIMENT     : ANBU1997 MZ  Analisis a침os de bajo rendimiento Buga          
 DATA PATH      : C:\DSSAT46\maize\                                             
 TREATMENT  6   : P04/27                    MZCER046                            
                                                                                
                                                                                
 CROP           : Maize            CULTIVAR : DK234            ECOTYPE :IB0001  
 STARTING DATE  : MAR 28 1997                                                   
 PLANTING DATE  : APR 27 1997        PLANTS/m2 :  6.2     ROW SPACING :  80.cm  
 WEATHER        : CUNI   1997                                                   
 SOIL           : CCBUGA2017     TEXTURE : CL    -   Suelo Buga MADR Fase I     
 SOIL INITIAL C : DEPTH: 90cm EXTR. H2O: 83.9mm  NO3:151.4kg/ha  NH4: 62.4kg/ha 
 WATER BALANCE  : RAINFED                                                       
 IRRIGATION     : NOT IRRIGATED                                                 
 NITROGEN BAL.  : SOIL-N & N-UPTAKE SIMULATION; NO N-FIXATION                   
 N-FERTILIZER   :      161 kg/ha IN     5 APPLICATIONS                          
 RESIDUE/MANURE : INITIAL :     0 kg/ha ;       0 kg/ha IN     0 APPLICATIONS   
 ENVIRONM. OPT. : DAYL=    0.00  SRAD=    0.00  TMAX=    0.00  TMIN=    0.00    
                  RAIN=    0.00  CO2 =    0.00  DEW =    0.00  WIND=    0.00    
 SIMULATION OPT : WATER   :Y  NITROGEN:Y  N-FIX:N  PHOSPH :N  PESTS  :N         
                  PHOTO   :C  ET      :R  INFIL:S  HYDROL :R  SOM    :G         
                  CO2 363ppm  NSWIT   :1  EVAP :S  SOIL   :2  STEMP  :D         
 MANAGEMENT OPT : PLANTING:R  IRRIG   :N  FERT :D  RESIDUE:R  HARVEST:M         
                  WEATHER :M  TILLAGE :N                                        
                                                                                
*SUMMARY OF SOIL AND GENETIC INPUT PARAMETERS                                   
                                                                                
   SOIL LOWER UPPER   SAT  EXTR  INIT   ROOT   BULK     pH    NO3    NH4    ORG 
  DEPTH LIMIT LIMIT    SW    SW    SW   DIST   DENS                          C  
   cm   cm3/cm3    cm3/cm3    cm3/cm3         g/cm3         ugN/g  ugN/g     %  
------------------------------------------------------------------------------- 
  0-  5 0.215 0.331 0.341 0.116 0.319   1.00   1.68   6.70  11.90   4.21   0.75 
  5- 15 0.215 0.331 0.341 0.116 0.319   1.00   1.68   6.70  11.90   4.21   0.75 
 15- 25 0.215 0.331 0.341 0.116 0.319   1.00   1.68   6.70  11.90   4.21   0.75 
 25- 35 0.181 0.291 0.364 0.110 0.331   0.50   1.61   7.20  12.15   4.32   0.53 
 35- 45 0.181 0.291 0.364 0.110 0.344   0.50   1.61   7.20  12.40   4.44   0.53 
 45- 67 0.096 0.169 0.404 0.073 0.290   0.27   1.51   7.00  10.67   4.47   0.05 
 67- 90 0.096 0.169 0.404 0.073 0.195   0.27   1.51   7.00   7.63   4.53   0.05 
                                                                                
TOT- 90  13.3  21.7  34.0   8.4  25.6  <--cm   -  kg/ha-->  151.4   62.4  51964 
SOIL ALBEDO    : 0.09      EVAPORATION LIMIT : 6.00         MIN. FACTOR  : 1.00 
RUNOFF CURVE # :76.00      DRAINAGE RATE     : 0.60         FERT. FACTOR : 1.00 
                                                                                
 Maize      CULTIVAR :CI0002-DK234              ECOTYPE :IB0001                 
 P1     : 300.00  P2     : 0.4000  P5     :1075.00                              
 G2     : 890.00  G3     :  7.750  PHINT  : 40.000                              


*SIMULATED CROP AND SOIL STATUS AT MAIN DEVELOPMENT STAGES

 RUN NO.     6     P04/27                  

        CROP GROWTH     BIOMASS         LEAF   CROP N     STRESS      STRESS                                           
   DATE  AGE STAGE        kg/ha    LAI   NUM  kg/ha  %   H2O  Nitr Phos1 Phos2  RSTG                                   
 ------  --- ----------   -----  -----  ----  ---  ---  ----  ----  ----  ----  ----                                   
 28 MAR    0 Start Sim        0   0.00   0.0    0  0.0  0.00  0.00  0.00  0.00     7
 27 APR    0 Sowing           0   0.00   0.0    0  0.0  0.00  0.00  0.00  0.00     8
 28 APR    1 Germinate        0   0.00   0.0    0  0.0  0.00  0.00  0.00  0.00     9
  3 MAY    6 Emergence       25   0.00   2.2    1  4.4  0.00  0.01  0.00  0.00     1
 20 MAY   23 End Juveni     299   0.55  10.2    9  3.2  0.00  0.00  0.00  0.00     2
 28 MAY   31 Floral Ini     877   1.31  13.5   32  3.6  0.00  0.00  0.00  0.00     3
  9 JUL   73 75% Silkin    8972   4.51  27.9  186  2.1  0.07  0.00  0.00  0.00     4
 18 JUL   82 Beg Gr Fil    9119   3.14  27.9  186  2.0  0.86  0.00  0.00  0.00     5
  Crop mature on JD 241 due to slowed grain filling
 30 AUG  125 End Gr Fil   10615   0.64  27.9  186  1.8  0.78  0.00  0.00  0.00     6
 31 AUG  126 Maturity     10615   0.64  27.9  186  1.8  1.00  0.00  0.00  0.00    10
 31 AUG  126 Harvest      10615   0.64  27.9  186  1.8  0.00  0.00  0.00  0.00    10


*MAIN GROWTH AND DEVELOPMENT VARIABLES

@     VARIABLE                                         SIMULATED     MEASURED
      --------                                         ---------     --------
      Anthesis day (dap)                                      73          -99
      Physiological maturity day (dap)                       126          -99
      Yield at harvest maturity (kg [dm]/ha)                2065          -99
      Number at maturity (no/m2)                            1046          -99
      Unit wt at maturity (g [dm]/unit)                   0.1973          -99
      Number at maturity (no/unit)                         168.8          -99
      Tops weight at maturity (kg [dm]/ha)                 10615          -99
      By-product produced (stalk) at maturity (kg[dm]/ha    8634          -99
      Leaf area index, maximum                              4.75          -99
      Harvest index at maturity                            0.194          -99
      Grain N at maturity (kg/ha)                             38          -99
      Tops N at maturity (kg/ha)                             186          -99
      Stem N at maturity (kg/ha)                             148          -99
      Grain N at maturity (%)                                1.8          -99
      Tops weight at anthesis (kg [dm]/ha)                  8890          -99
      Tops N at anthesis (kg/ha)                             186          -99
      Leaf number per stem at maturity                     27.92          -99
      Emergence day (dap)                                      6          -99


*ENVIRONMENTAL AND STRESS FACTORS

 |-----Development Phase------|--------------------------------------Environment--------------------------------------|-----------------Stress-----------------|
                              |---------------Average--------------|-----Cumulative-----|--------Count of days--------|          (0=Min, 1=Max Stress)         |
                         Time  Temp  Temp  Temp Solar Photop                Evapo    Pot TMIN TMIN TMAX TMAX TMAX RAIN|----Water----|---Nitrogen--|-Phosphorus-|
                         Span   Max   Min  Mean   Rad  [day]    CO2   Rain  Trans     ET   <    <    >    >    >    >   Photo         Photo         Photo
                         days    邂    邂    邂 MJ/m2     hr    ppm     mm     mm     mm  0邂  2邂 30邂 32邂 34邂  0mm  synth Growth  synth Growth  synth Growth
----------------------------------------------------------------------------------------------------------------------------------------------------------------
 Emergence-End Juvenile    17  30.7  18.7  24.7  15.7  24.00  363.5   54.0   42.6   73.6    0    0   12    4    0    7  0.000  0.000  0.002  0.005  0.000  0.000
 End Juvenil-Floral Init    8  30.0  19.2  24.6  14.2  24.00  363.5   30.0   21.4   29.4    0    0    4    1    0    3  0.000  0.000  0.000  0.001  0.000  0.000
 Floral Init-End Lf Grow   42  29.9  18.5  24.2  15.1  24.00  363.6  152.0  144.8  150.8    0    0   21    3    0   13  0.029  0.053  0.000  0.000  0.000  0.000
 End Lf Grth-Beg Grn Fil    9  31.9  18.3  25.1  18.0  24.00  363.7    3.0   11.4   38.8    0    0    8    2    1    1  0.727  0.819  0.000  0.000  0.000  0.000
 Grain Filling Phase       43  33.4  18.0  25.7  18.4  23.98  363.9   53.1   63.6  201.5    0    0   43   35   15    6  0.742  0.774  0.000  0.000  0.000  0.000


 Planting to Harvest      126  31.4  18.4  24.9  16.6  23.97  363.7  292.1  298.5  529.1    0    0   93   48   16   30  0.323  0.348  0.000  0.001  0.000  0.000
----------------------------------------------------------------------------------------------------------------------------------------------------------------


*Resource Productivity
 Growing season length: 126 days 

 Precipitation during growing season       292.1 mm[rain]
   Dry Matter Productivity                  3.63 kg[DM]/m3[rain]          =   36.3 kg[DM]/ha per mm[rain]
   Yield Productivity                       0.71 kg[grain yield]/m3[rain] =    7.1 kg[yield]/ha per mm[rain]

 Evapotranspiration during growing season  298.5 mm[ET]
   Dry Matter Productivity                  3.56 kg[DM]/m3[ET]            =   35.6 kg[DM]/ha per mm[ET]
   Yield Productivity                       0.69 kg[grain yield]/m3[ET]   =    6.9 kg[yield]/ha per mm[ET]

 Transpiration during growing season       188.6 mm[EP]
   Dry Matter Productivity                  5.63 kg[DM]/m3[EP]            =   56.3 kg[DM]/ha per mm[EP]
   Yield Productivity                       1.09 kg[grain yield]/m3[EP]   =   10.9 kg[yield]/ha per mm[EP]

 N applied during growing season            161. kg[N applied]/ha
   Dry Matter Productivity                  65.9 kg[DM]/kg[N applied]
   Yield Productivity                       12.8 kg[yield]/kg[N applied]

 N uptake during growing season              203 kg[N uptake]/ha
   Dry Matter Productivity                  52.3 kg[DM]/kg[N uptake]
   Yield Productivity                       10.2 kg[yield]/kg[N uptake]

--------------------------------------------------------------------------------------------------------------

                     Maize YIELD :     2065 kg/ha    [Dry weight] 

**************************************************************************************************************

*DSSAT Cropping System Model Ver. 4.6.1.000 -release      OCT 02, 2017; 13:29:03
                                                                                
*RUN   7        : P05/02                    MZCER046 ANBU1997    7              
 MODEL          : MZCER046 - Maize                                              
 EXPERIMENT     : ANBU1997 MZ  Analisis a침os de bajo rendimiento Buga          
 DATA PATH      : C:\DSSAT46\maize\                                             
 TREATMENT  7   : P05/02                    MZCER046                            
                                                                                
                                                                                
 CROP           : Maize            CULTIVAR : DK234            ECOTYPE :IB0001  
 STARTING DATE  : APR  2 1997                                                   
 PLANTING DATE  : MAY  2 1997        PLANTS/m2 :  6.2     ROW SPACING :  80.cm  
 WEATHER        : CUNI   1997                                                   
 SOIL           : CCBUGA2017     TEXTURE : CL    -   Suelo Buga MADR Fase I     
 SOIL INITIAL C : DEPTH: 90cm EXTR. H2O: 83.9mm  NO3:151.4kg/ha  NH4: 62.4kg/ha 
 WATER BALANCE  : RAINFED                                                       
 IRRIGATION     : NOT IRRIGATED                                                 
 NITROGEN BAL.  : SOIL-N & N-UPTAKE SIMULATION; NO N-FIXATION                   
 N-FERTILIZER   :      161 kg/ha IN     5 APPLICATIONS                          
 RESIDUE/MANURE : INITIAL :     0 kg/ha ;       0 kg/ha IN     0 APPLICATIONS   
 ENVIRONM. OPT. : DAYL=    0.00  SRAD=    0.00  TMAX=    0.00  TMIN=    0.00    
                  RAIN=    0.00  CO2 =    0.00  DEW =    0.00  WIND=    0.00    
 SIMULATION OPT : WATER   :Y  NITROGEN:Y  N-FIX:N  PHOSPH :N  PESTS  :N         
                  PHOTO   :C  ET      :R  INFIL:S  HYDROL :R  SOM    :G         
                  CO2 363ppm  NSWIT   :1  EVAP :S  SOIL   :2  STEMP  :D         
 MANAGEMENT OPT : PLANTING:R  IRRIG   :N  FERT :D  RESIDUE:R  HARVEST:M         
                  WEATHER :M  TILLAGE :N                                        
                                                                                
*SUMMARY OF SOIL AND GENETIC INPUT PARAMETERS                                   
                                                                                
   SOIL LOWER UPPER   SAT  EXTR  INIT   ROOT   BULK     pH    NO3    NH4    ORG 
  DEPTH LIMIT LIMIT    SW    SW    SW   DIST   DENS                          C  
   cm   cm3/cm3    cm3/cm3    cm3/cm3         g/cm3         ugN/g  ugN/g     %  
------------------------------------------------------------------------------- 
  0-  5 0.215 0.331 0.341 0.116 0.319   1.00   1.68   6.70  11.90   4.21   0.75 
  5- 15 0.215 0.331 0.341 0.116 0.319   1.00   1.68   6.70  11.90   4.21   0.75 
 15- 25 0.215 0.331 0.341 0.116 0.319   1.00   1.68   6.70  11.90   4.21   0.75 
 25- 35 0.181 0.291 0.364 0.110 0.331   0.50   1.61   7.20  12.15   4.32   0.53 
 35- 45 0.181 0.291 0.364 0.110 0.344   0.50   1.61   7.20  12.40   4.44   0.53 
 45- 67 0.096 0.169 0.404 0.073 0.290   0.27   1.51   7.00  10.67   4.47   0.05 
 67- 90 0.096 0.169 0.404 0.073 0.195   0.27   1.51   7.00   7.63   4.53   0.05 
                                                                                
TOT- 90  13.3  21.7  34.0   8.4  25.6  <--cm   -  kg/ha-->  151.4   62.4  51964 
SOIL ALBEDO    : 0.09      EVAPORATION LIMIT : 6.00         MIN. FACTOR  : 1.00 
RUNOFF CURVE # :76.00      DRAINAGE RATE     : 0.60         FERT. FACTOR : 1.00 
                                                                                
 Maize      CULTIVAR :CI0002-DK234              ECOTYPE :IB0001                 
 P1     : 300.00  P2     : 0.4000  P5     :1075.00                              
 G2     : 890.00  G3     :  7.750  PHINT  : 40.000                              


*SIMULATED CROP AND SOIL STATUS AT MAIN DEVELOPMENT STAGES

 RUN NO.     7     P05/02                  

        CROP GROWTH     BIOMASS         LEAF   CROP N     STRESS      STRESS                                           
   DATE  AGE STAGE        kg/ha    LAI   NUM  kg/ha  %   H2O  Nitr Phos1 Phos2  RSTG                                   
 ------  --- ----------   -----  -----  ----  ---  ---  ----  ----  ----  ----  ----                                   
  2 APR    0 Start Sim        0   0.00   0.0    0  0.0  0.00  0.00  0.00  0.00     7
  2 MAY    0 Sowing           0   0.00   0.0    0  0.0  0.00  0.00  0.00  0.00     8
  3 MAY    1 Germinate        0   0.00   0.0    0  0.0  0.00  0.00  0.00  0.00     9
  8 MAY    6 Emergence       25   0.00   2.2    1  4.4  0.00  0.01  0.00  0.00     1
 25 MAY   23 End Juveni     293   0.54  10.2   10  3.5  0.00  0.00  0.00  0.00     2
  2 JUN   31 Floral Ini     814   1.23  13.4   29  3.6  0.00  0.00  0.00  0.00     3
 13 JUL   72 75% Silkin    7934   3.66  27.5  177  2.2  0.16  0.00  0.00  0.00     4
 23 JUL   82 Beg Gr Fil    7809   2.36  27.5  177  2.3  0.91  0.00  0.00  0.00     5
  Crop mature on JD 243 due to slowed grain filling
  1 SEP  122 End Gr Fil    8794   0.56  27.5  177  2.0  0.76  0.00  0.00  0.00     6
  2 SEP  123 Maturity      8794   0.56  27.5  177  2.0  1.00  0.00  0.00  0.00    10
  2 SEP  123 Harvest       8794   0.56  27.5  177  2.0  0.00  0.00  0.00  0.00    10


*MAIN GROWTH AND DEVELOPMENT VARIABLES

@     VARIABLE                                         SIMULATED     MEASURED
      --------                                         ---------     --------
      Anthesis day (dap)                                      72          -99
      Physiological maturity day (dap)                       123          -99
      Yield at harvest maturity (kg [dm]/ha)                1318          -99
      Number at maturity (no/m2)                             707          -99
      Unit wt at maturity (g [dm]/unit)                   0.1863          -99
      Number at maturity (no/unit)                         118.6          -99
      Tops weight at maturity (kg [dm]/ha)                  8794          -99
      By-product produced (stalk) at maturity (kg[dm]/ha    7558          -99
      Leaf area index, maximum                              4.50          -99
      Harvest index at maturity                            0.150          -99
      Grain N at maturity (kg/ha)                             24          -99
      Tops N at maturity (kg/ha)                             177          -99
      Stem N at maturity (kg/ha)                             152          -99
      Grain N at maturity (%)                                1.8          -99
      Tops weight at anthesis (kg [dm]/ha)                  7900          -99
      Tops N at anthesis (kg/ha)                             177          -99
      Leaf number per stem at maturity                     27.49          -99
      Emergence day (dap)                                      6          -99


*ENVIRONMENTAL AND STRESS FACTORS

 |-----Development Phase------|--------------------------------------Environment--------------------------------------|-----------------Stress-----------------|
                              |---------------Average--------------|-----Cumulative-----|--------Count of days--------|          (0=Min, 1=Max Stress)         |
                         Time  Temp  Temp  Temp Solar Photop                Evapo    Pot TMIN TMIN TMAX TMAX TMAX RAIN|----Water----|---Nitrogen--|-Phosphorus-|
                         Span   Max   Min  Mean   Rad  [day]    CO2   Rain  Trans     ET   <    <    >    >    >    >   Photo         Photo         Photo
                         days    邂    邂    邂 MJ/m2     hr    ppm     mm     mm     mm  0邂  2邂 30邂 32邂 34邂  0mm  synth Growth  synth Growth  synth Growth
----------------------------------------------------------------------------------------------------------------------------------------------------------------
 Emergence-End Juvenile    17  30.7  19.0  24.9  15.7  24.00  363.5   52.0   45.9   73.7    0    0   12    3    0    6  0.000  0.000  0.002  0.005  0.000  0.000
 End Juvenil-Floral Init    8  28.8  19.2  24.0  11.9  24.00  363.5   18.0   19.9   24.4    0    0    2    0    0    2  0.000  0.000  0.000  0.001  0.000  0.000
 Floral Init-End Lf Grow   41  30.0  18.4  24.2  15.8  24.00  363.6  152.0  135.4  154.1    0    0   22    3    0   13  0.102  0.141  0.000  0.000  0.000  0.000
 End Lf Grth-Beg Grn Fil   10  33.7  18.0  25.8  18.6  24.00  363.8    3.0   11.0   46.1    0    0   10    7    4    1  0.846  0.897  0.000  0.000  0.000  0.000
 Grain Filling Phase       40  33.2  18.0  25.6  18.3  23.84  363.9   53.1   59.2  187.1    0    0   40   32   12    6  0.728  0.761  0.000  0.000  0.000  0.000


 Planting to Harvest      123  31.5  18.4  24.9  16.5  23.92  363.7  292.1  277.3  515.6    0    0   92   48   16   30  0.348  0.375  0.000  0.001  0.000  0.000
----------------------------------------------------------------------------------------------------------------------------------------------------------------


*Resource Productivity
 Growing season length: 123 days 

 Precipitation during growing season       292.1 mm[rain]
   Dry Matter Productivity                  3.01 kg[DM]/m3[rain]          =   30.1 kg[DM]/ha per mm[rain]
   Yield Productivity                       0.45 kg[grain yield]/m3[rain] =    4.5 kg[yield]/ha per mm[rain]

 Evapotranspiration during growing season  277.3 mm[ET]
   Dry Matter Productivity                  3.17 kg[DM]/m3[ET]            =   31.7 kg[DM]/ha per mm[ET]
   Yield Productivity                       0.48 kg[grain yield]/m3[ET]   =    4.8 kg[yield]/ha per mm[ET]

 Transpiration during growing season       168.4 mm[EP]
   Dry Matter Productivity                  5.22 kg[DM]/m3[EP]            =   52.2 kg[DM]/ha per mm[EP]
   Yield Productivity                       0.78 kg[grain yield]/m3[EP]   =    7.8 kg[yield]/ha per mm[EP]

 N applied during growing season            161. kg[N applied]/ha
   Dry Matter Productivity                  54.6 kg[DM]/kg[N applied]
   Yield Productivity                        8.2 kg[yield]/kg[N applied]

 N uptake during growing season              191 kg[N uptake]/ha
   Dry Matter Productivity                  46.0 kg[DM]/kg[N uptake]
   Yield Productivity                        6.9 kg[yield]/kg[N uptake]

--------------------------------------------------------------------------------------------------------------

                     Maize YIELD :     1318 kg/ha    [Dry weight] 

**************************************************************************************************************

*DSSAT Cropping System Model Ver. 4.6.1.000 -release      OCT 02, 2017; 13:29:03
                                                                                
*RUN   8        : P05/07                    MZCER046 ANBU1997    8              
 MODEL          : MZCER046 - Maize                                              
 EXPERIMENT     : ANBU1997 MZ  Analisis a침os de bajo rendimiento Buga          
 DATA PATH      : C:\DSSAT46\maize\                                             
 TREATMENT  8   : P05/07                    MZCER046                            
                                                                                
                                                                                
 CROP           : Maize            CULTIVAR : DK234            ECOTYPE :IB0001  
 STARTING DATE  : APR  7 1997                                                   
 PLANTING DATE  : MAY  7 1997        PLANTS/m2 :  6.2     ROW SPACING :  80.cm  
 WEATHER        : CUNI   1997                                                   
 SOIL           : CCBUGA2017     TEXTURE : CL    -   Suelo Buga MADR Fase I     
 SOIL INITIAL C : DEPTH: 90cm EXTR. H2O: 83.9mm  NO3:151.4kg/ha  NH4: 62.4kg/ha 
 WATER BALANCE  : RAINFED                                                       
 IRRIGATION     : NOT IRRIGATED                                                 
 NITROGEN BAL.  : SOIL-N & N-UPTAKE SIMULATION; NO N-FIXATION                   
 N-FERTILIZER   :      161 kg/ha IN     5 APPLICATIONS                          
 RESIDUE/MANURE : INITIAL :     0 kg/ha ;       0 kg/ha IN     0 APPLICATIONS   
 ENVIRONM. OPT. : DAYL=    0.00  SRAD=    0.00  TMAX=    0.00  TMIN=    0.00    
                  RAIN=    0.00  CO2 =    0.00  DEW =    0.00  WIND=    0.00    
 SIMULATION OPT : WATER   :Y  NITROGEN:Y  N-FIX:N  PHOSPH :N  PESTS  :N         
                  PHOTO   :C  ET      :R  INFIL:S  HYDROL :R  SOM    :G         
                  CO2 363ppm  NSWIT   :1  EVAP :S  SOIL   :2  STEMP  :D         
 MANAGEMENT OPT : PLANTING:R  IRRIG   :N  FERT :D  RESIDUE:R  HARVEST:M         
                  WEATHER :M  TILLAGE :N                                        
                                                                                
*SUMMARY OF SOIL AND GENETIC INPUT PARAMETERS                                   
                                                                                
   SOIL LOWER UPPER   SAT  EXTR  INIT   ROOT   BULK     pH    NO3    NH4    ORG 
  DEPTH LIMIT LIMIT    SW    SW    SW   DIST   DENS                          C  
   cm   cm3/cm3    cm3/cm3    cm3/cm3         g/cm3         ugN/g  ugN/g     %  
------------------------------------------------------------------------------- 
  0-  5 0.215 0.331 0.341 0.116 0.319   1.00   1.68   6.70  11.90   4.21   0.75 
  5- 15 0.215 0.331 0.341 0.116 0.319   1.00   1.68   6.70  11.90   4.21   0.75 
 15- 25 0.215 0.331 0.341 0.116 0.319   1.00   1.68   6.70  11.90   4.21   0.75 
 25- 35 0.181 0.291 0.364 0.110 0.331   0.50   1.61   7.20  12.15   4.32   0.53 
 35- 45 0.181 0.291 0.364 0.110 0.344   0.50   1.61   7.20  12.40   4.44   0.53 
 45- 67 0.096 0.169 0.404 0.073 0.290   0.27   1.51   7.00  10.67   4.47   0.05 
 67- 90 0.096 0.169 0.404 0.073 0.195   0.27   1.51   7.00   7.63   4.53   0.05 
                                                                                
TOT- 90  13.3  21.7  34.0   8.4  25.6  <--cm   -  kg/ha-->  151.4   62.4  51964 
SOIL ALBEDO    : 0.09      EVAPORATION LIMIT : 6.00         MIN. FACTOR  : 1.00 
RUNOFF CURVE # :76.00      DRAINAGE RATE     : 0.60         FERT. FACTOR : 1.00 
                                                                                
 Maize      CULTIVAR :CI0002-DK234              ECOTYPE :IB0001                 
 P1     : 300.00  P2     : 0.4000  P5     :1075.00                              
 G2     : 890.00  G3     :  7.750  PHINT  : 40.000                              


*SIMULATED CROP AND SOIL STATUS AT MAIN DEVELOPMENT STAGES

 RUN NO.     8     P05/07                  

        CROP GROWTH     BIOMASS         LEAF   CROP N     STRESS      STRESS                                           
   DATE  AGE STAGE        kg/ha    LAI   NUM  kg/ha  %   H2O  Nitr Phos1 Phos2  RSTG                                   
 ------  --- ----------   -----  -----  ----  ---  ---  ----  ----  ----  ----  ----                                   
  7 APR    0 Start Sim        0   0.00   0.0    0  0.0  0.00  0.00  0.00  0.00     7
  7 MAY    0 Sowing           0   0.00   0.0    0  0.0  0.00  0.00  0.00  0.00     8
  8 MAY    1 Germinate        0   0.00   0.0    0  0.0  0.00  0.00  0.00  0.00     9
 13 MAY    6 Emergence       25   0.00   2.2    1  4.4  0.00  0.01  0.00  0.00     1
 30 MAY   23 End Juveni     225   0.43  10.0    8  3.5  0.00  0.00  0.00  0.00     2
  7 JUN   31 Floral Ini     605   0.97  13.2   22  3.6  0.00  0.00  0.00  0.00     3
 17 JUL   71 75% Silkin    6938   2.88  27.1  161  2.3  0.27  0.00  0.00  0.00     4
 26 JUL   80 Beg Gr Fil    6758   1.91  27.1  161  2.4  0.93  0.00  0.00  0.00     5
  Crop mature on JD 245 due to slowed grain filling
[...]
 NITROGEN BAL.  : SOIL-N & N-UPTAKE SIMULATION; NO N-FIXATION                   
 N-FERTILIZER   :      161 kg/ha IN     5 APPLICATIONS                          
 RESIDUE/MANURE : INITIAL :     0 kg/ha ;       0 kg/ha IN     0 APPLICATIONS   
 ENVIRONM. OPT. : DAYL=    0.00  SRAD=    0.00  TMAX=    0.00  TMIN=    0.00    
                  RAIN=    0.00  CO2 =    0.00  DEW =    0.00  WIND=    0.00    
 SIMULATION OPT : WATER   :Y  NITROGEN:Y  N-FIX:N  PHOSPH :N  PESTS  :N         
                  PHOTO   :C  ET      :R  INFIL:S  HYDROL :R  SOM    :G         
                  CO2 364ppm  NSWIT   :1  EVAP :S  SOIL   :2  STEMP  :D         
 MANAGEMENT OPT : PLANTING:R  IRRIG   :N  FERT :D  RESIDUE:R  HARVEST:M         
                  WEATHER :M  TILLAGE :N                                        
                                                                                
*SUMMARY OF SOIL AND GENETIC INPUT PARAMETERS                                   
                                                                                
   SOIL LOWER UPPER   SAT  EXTR  INIT   ROOT   BULK     pH    NO3    NH4    ORG 
  DEPTH LIMIT LIMIT    SW    SW    SW   DIST   DENS                          C  
   cm   cm3/cm3    cm3/cm3    cm3/cm3         g/cm3         ugN/g  ugN/g     %  
------------------------------------------------------------------------------- 
  0-  5 0.215 0.331 0.341 0.116 0.319   1.00   1.68   6.70  11.90   4.21   0.75 
  5- 15 0.215 0.331 0.341 0.116 0.319   1.00   1.68   6.70  11.90   4.21   0.75 
 15- 25 0.215 0.331 0.341 0.116 0.319   1.00   1.68   6.70  11.90   4.21   0.75 
 25- 35 0.181 0.291 0.364 0.110 0.331   0.50   1.61   7.20  12.15   4.32   0.53 
 35- 45 0.181 0.291 0.364 0.110 0.344   0.50   1.61   7.20  12.40   4.44   0.53 
 45- 67 0.096 0.169 0.404 0.073 0.290   0.27   1.51   7.00  10.67   4.47   0.05 
 67- 90 0.096 0.169 0.404 0.073 0.195   0.27   1.51   7.00   7.63   4.53   0.05 
                                                                                
TOT- 90  13.3  21.7  34.0   8.4  25.6  <--cm   -  kg/ha-->  151.4   62.4  51964 
SOIL ALBEDO    : 0.09      EVAPORATION LIMIT : 6.00         MIN. FACTOR  : 1.00 
RUNOFF CURVE # :76.00      DRAINAGE RATE     : 0.60         FERT. FACTOR : 1.00 
                                                                                
 Maize      CULTIVAR :CI0002-DK234              ECOTYPE :IB0001                 
 P1     : 300.00  P2     : 0.4000  P5     :1075.00                              
 G2     : 890.00  G3     :  7.750  PHINT  : 40.000                              


*SIMULATED CROP AND SOIL STATUS AT MAIN DEVELOPMENT STAGES

 RUN NO.    35     P12/14                  

        CROP GROWTH     BIOMASS         LEAF   CROP N     STRESS      STRESS                                           
   DATE  AGE STAGE        kg/ha    LAI   NUM  kg/ha  %   H2O  Nitr Phos1 Phos2  RSTG                                   
 ------  --- ----------   -----  -----  ----  ---  ---  ----  ----  ----  ----  ----                                   
 14 NOV    0 Start Sim        0   0.00   0.0    0  0.0  0.00  0.00  0.00  0.00     7
 14 DEC    0 Sowing           0   0.00   0.0    0  0.0  0.00  0.00  0.00  0.00     8
 15 DEC    1 Germinate        0   0.00   0.0    0  0.0  0.00  0.00  0.00  0.00     9
 20 DEC    6 Emergence       25   0.00   2.2    1  4.4  0.00  0.01  0.00  0.00     1
  5 JAN   22 End Juveni     324   0.59  10.3   11  3.3  0.11  0.00  0.00  0.00     2
  9 JAN   26 Floral Ini     578   0.94  12.0   21  3.7  0.04  0.00  0.00  0.00     3
 12 FEB   60 75% Silkin    2848   1.19  24.8   63  2.2  0.62  0.00  0.00  0.00     4
 22 FEB   70 Beg Gr Fil    3723   0.97  24.8   63  1.7  0.49  0.00  0.00  0.00     5
 11 APR  118 End Gr Fil    4873   0.24  24.8   63  1.3  0.60  0.00  0.00  0.00     6
 15 APR  122 Maturity      4873   0.24  24.8   63  1.3  0.00  0.00  0.00  0.00    10
 15 APR  122 Harvest       4873   0.24  24.8   63  1.3  0.00  0.00  0.00  0.00    10


*MAIN GROWTH AND DEVELOPMENT VARIABLES

@     VARIABLE                                         SIMULATED     MEASURED
      --------                                         ---------     --------
      Anthesis day (dap)                                      60          -99
      Physiological maturity day (dap)                       122          -99
      Yield at harvest maturity (kg [dm]/ha)                1829          -99
      Number at maturity (no/m2)                            1433          -99
      Unit wt at maturity (g [dm]/unit)                   0.1276          -99
      Number at maturity (no/unit)                         231.2          -99
      Tops weight at maturity (kg [dm]/ha)                  4873          -99
      By-product produced (stalk) at maturity (kg[dm]/ha    3087          -99
      Leaf area index, maximum                              1.64          -99
      Harvest index at maturity                            0.375          -99
      Grain N at maturity (kg/ha)                             33          -99
      Tops N at maturity (kg/ha)                              63          -99
      Stem N at maturity (kg/ha)                              30          -99
      Grain N at maturity (%)                                1.8          -99
      Tops weight at anthesis (kg [dm]/ha)                  2747          -99
      Tops N at anthesis (kg/ha)                              63          -99
      Leaf number per stem at maturity                     24.85          -99
      Emergence day (dap)                                      6          -99


*ENVIRONMENTAL AND STRESS FACTORS

 |-----Development Phase------|--------------------------------------Environment--------------------------------------|-----------------Stress-----------------|
                              |---------------Average--------------|-----Cumulative-----|--------Count of days--------|          (0=Min, 1=Max Stress)         |
                         Time  Temp  Temp  Temp Solar Photop                Evapo    Pot TMIN TMIN TMAX TMAX TMAX RAIN|----Water----|---Nitrogen--|-Phosphorus-|
                         Span   Max   Min  Mean   Rad  [day]    CO2   Rain  Trans     ET   <    <    >    >    >    >   Photo         Photo         Photo
                         days    邂    邂    邂 MJ/m2     hr    ppm     mm     mm     mm  0邂  2邂 30邂 32邂 34邂  0mm  synth Growth  synth Growth  synth Growth
----------------------------------------------------------------------------------------------------------------------------------------------------------------
 Emergence-End Juvenile    16  33.1  18.2  25.6  18.0   0.00  364.9    9.0   17.4   80.0    0    0   16   12    2    1  0.005  0.109  0.002  0.004  0.000  0.000
 End Juvenil-Floral Init    4  31.9  18.5  25.2  14.8   0.00  364.9    0.0    7.7   15.7    0    0    3    2    1    0  0.000  0.030  0.001  0.004  0.000  0.000
 Floral Init-End Lf Grow   34  33.3  19.1  26.2  18.1   0.00  365.1   35.0   67.0  158.8    0    0   31   28    8    6  0.485  0.617  0.000  0.000  0.000  0.000
 End Lf Grth-Beg Grn Fil   10  32.3  18.8  25.6  17.9   0.00  365.4   21.0   28.0   46.3    0    0    7    6    1    2  0.314  0.406  0.000  0.000  0.000  0.000
 Grain Filling Phase       48  32.0  19.1  25.6  16.9   9.84  365.6  113.1   67.7  219.1    0    0   39   26    4   17  0.593  0.619  0.000  0.000  0.000  0.000


 Planting to Harvest      122  32.4  19.0  25.7  17.3   4.57  365.3  232.1  207.1  562.9    0    0  102   76   16   29  0.395  0.464  0.000  0.001  0.000  0.000
----------------------------------------------------------------------------------------------------------------------------------------------------------------


*Resource Productivity
 Growing season length: 122 days 

 Precipitation during growing season       232.1 mm[rain]
   Dry Matter Productivity                  2.10 kg[DM]/m3[rain]          =   21.0 kg[DM]/ha per mm[rain]
   Yield Productivity                       0.79 kg[grain yield]/m3[rain] =    7.9 kg[yield]/ha per mm[rain]

 Evapotranspiration during growing season  207.1 mm[ET]
   Dry Matter Productivity                  2.35 kg[DM]/m3[ET]            =   23.5 kg[DM]/ha per mm[ET]
   Yield Productivity                       0.88 kg[grain yield]/m3[ET]   =    8.8 kg[yield]/ha per mm[ET]

 Transpiration during growing season        94.3 mm[EP]
   Dry Matter Productivity                  5.17 kg[DM]/m3[EP]            =   51.7 kg[DM]/ha per mm[EP]
   Yield Productivity                       1.94 kg[grain yield]/m3[EP]   =   19.4 kg[yield]/ha per mm[EP]

 N applied during growing season            161. kg[N applied]/ha
   Dry Matter Productivity                  30.3 kg[DM]/kg[N applied]
   Yield Productivity                       11.4 kg[yield]/kg[N applied]

 N uptake during growing season               71 kg[N uptake]/ha
   Dry Matter Productivity                  68.6 kg[DM]/kg[N uptake]
   Yield Productivity                       25.8 kg[yield]/kg[N uptake]

--------------------------------------------------------------------------------------------------------------

                     Maize YIELD :     1829 kg/ha    [Dry weight] 

**************************************************************************************************************

*DSSAT Cropping System Model Ver. 4.6.1.000 -release      OCT 02, 2017; 13:29:07
                                                                                
*RUN  36        : P12/19                    MZCER046 ANBU1997   36              
 MODEL          : MZCER046 - Maize                                              
 EXPERIMENT     : ANBU1997 MZ  Analisis a침os de bajo rendimiento Buga          
 DATA PATH      : C:\DSSAT46\maize\                                             
 TREATMENT 36   : P12/19                    MZCER046                            
                                                                                
                                                                                
 CROP           : Maize            CULTIVAR : DK234            ECOTYPE :IB0001  
 STARTING DATE  : NOV 19 1997                                                   
 PLANTING DATE  : DEC 19 1997        PLANTS/m2 :  6.2     ROW SPACING :  80.cm  
 WEATHER        : CUNI   1997                                                   
 SOIL           : CCBUGA2017     TEXTURE : CL    -   Suelo Buga MADR Fase I     
 SOIL INITIAL C : DEPTH: 90cm EXTR. H2O: 83.9mm  NO3:151.4kg/ha  NH4: 62.4kg/ha 
 WATER BALANCE  : RAINFED                                                       
 IRRIGATION     : NOT IRRIGATED                                                 
 NITROGEN BAL.  : SOIL-N & N-UPTAKE SIMULATION; NO N-FIXATION                   
 N-FERTILIZER   :      161 kg/ha IN     5 APPLICATIONS                          
 RESIDUE/MANURE : INITIAL :     0 kg/ha ;       0 kg/ha IN     0 APPLICATIONS   
 ENVIRONM. OPT. : DAYL=    0.00  SRAD=    0.00  TMAX=    0.00  TMIN=    0.00    
                  RAIN=    0.00  CO2 =    0.00  DEW =    0.00  WIND=    0.00    
 SIMULATION OPT : WATER   :Y  NITROGEN:Y  N-FIX:N  PHOSPH :N  PESTS  :N         
                  PHOTO   :C  ET      :R  INFIL:S  HYDROL :R  SOM    :G         
                  CO2 365ppm  NSWIT   :1  EVAP :S  SOIL   :2  STEMP  :D         
 MANAGEMENT OPT : PLANTING:R  IRRIG   :N  FERT :D  RESIDUE:R  HARVEST:M         
                  WEATHER :M  TILLAGE :N                                        
                                                                                
*SUMMARY OF SOIL AND GENETIC INPUT PARAMETERS                                   
                                                                                
   SOIL LOWER UPPER   SAT  EXTR  INIT   ROOT   BULK     pH    NO3    NH4    ORG 
  DEPTH LIMIT LIMIT    SW    SW    SW   DIST   DENS                          C  
   cm   cm3/cm3    cm3/cm3    cm3/cm3         g/cm3         ugN/g  ugN/g     %  
------------------------------------------------------------------------------- 
  0-  5 0.215 0.331 0.341 0.116 0.319   1.00   1.68   6.70  11.90   4.21   0.75 
  5- 15 0.215 0.331 0.341 0.116 0.319   1.00   1.68   6.70  11.90   4.21   0.75 
 15- 25 0.215 0.331 0.341 0.116 0.319   1.00   1.68   6.70  11.90   4.21   0.75 
 25- 35 0.181 0.291 0.364 0.110 0.331   0.50   1.61   7.20  12.15   4.32   0.53 
 35- 45 0.181 0.291 0.364 0.110 0.344   0.50   1.61   7.20  12.40   4.44   0.53 
 45- 67 0.096 0.169 0.404 0.073 0.290   0.27   1.51   7.00  10.67   4.47   0.05 
 67- 90 0.096 0.169 0.404 0.073 0.195   0.27   1.51   7.00   7.63   4.53   0.05 
                                                                                
TOT- 90  13.3  21.7  34.0   8.4  25.6  <--cm   -  kg/ha-->  151.4   62.4  51964 
SOIL ALBEDO    : 0.09      EVAPORATION LIMIT : 6.00         MIN. FACTOR  : 1.00 
RUNOFF CURVE # :76.00      DRAINAGE RATE     : 0.60         FERT. FACTOR : 1.00 
                                                                                
 Maize      CULTIVAR :CI0002-DK234              ECOTYPE :IB0001                 
 P1     : 300.00  P2     : 0.4000  P5     :1075.00                              
 G2     : 890.00  G3     :  7.750  PHINT  : 40.000                              


*SIMULATED CROP AND SOIL STATUS AT MAIN DEVELOPMENT STAGES

 RUN NO.    36     P12/19                  

        CROP GROWTH     BIOMASS         LEAF   CROP N     STRESS      STRESS                                           
   DATE  AGE STAGE        kg/ha    LAI   NUM  kg/ha  %   H2O  Nitr Phos1 Phos2  RSTG                                   
 ------  --- ----------   -----  -----  ----  ---  ---  ----  ----  ----  ----  ----                                   
 19 NOV    0 Start Sim        0   0.00   0.0    0  0.0  0.00  0.00  0.00  0.00     7
 19 DEC    0 Sowing           0   0.00   0.0    0  0.0  0.00  0.00  0.00  0.00     8
 20 DEC    1 Germinate        0   0.00   0.0    0  0.0  0.00  0.00  0.00  0.00     9
 25 DEC    6 Emergence       25   0.00   2.2    1  4.4  0.00  0.01  0.00  0.00     1
 10 JAN   22 End Juveni     227   0.44  10.2    7  3.3  0.24  0.00  0.00  0.00     2
 14 JAN   26 Floral Ini     495   0.83  12.1   18  3.7  0.08  0.00  0.00  0.00     3
 17 FEB   60 75% Silkin    3547   1.49  25.3   72  2.0  0.57  0.00  0.00  0.00     4
 27 FEB   70 Beg Gr Fil    3690   1.00  25.3   72  1.9  0.85  0.00  0.00  0.00     5
 17 APR  119 End Gr Fil    5245   0.30  25.3   72  1.4  0.51  0.00  0.00  0.00     6
 20 APR  122 Maturity      5245   0.30  25.3   72  1.4  0.00  0.00  0.00  0.00    10
 20 APR  122 Harvest       5245   0.30  25.3   72  1.4  0.00  0.00  0.00  0.00    10


*MAIN GROWTH AND DEVELOPMENT VARIABLES

@     VARIABLE                                         SIMULATED     MEASURED
      --------                                         ---------     --------
      Anthesis day (dap)                                      60          -99
      Physiological maturity day (dap)                       122          -99
      Yield at harvest maturity (kg [dm]/ha)                2228          -99
      Number at maturity (no/m2)                             924          -99
      Unit wt at maturity (g [dm]/unit)                   0.2411          -99
      Number at maturity (no/unit)                         149.0          -99
      Tops weight at maturity (kg [dm]/ha)                  5245          -99
      By-product produced (stalk) at maturity (kg[dm]/ha    3059          -99
      Leaf area index, maximum                              1.54          -99
      Harvest index at maturity                            0.425          -99
      Grain N at maturity (kg/ha)                             40          -99
      Tops N at maturity (kg/ha)                              72          -99
      Stem N at maturity (kg/ha)                              32          -99
      Grain N at maturity (%)                                1.8          -99
      Tops weight at anthesis (kg [dm]/ha)                  3287          -99
      Tops N at anthesis (kg/ha)                              70          -99
      Leaf number per stem at maturity                     25.26          -99
      Emergence day (dap)                                      6          -99


*ENVIRONMENTAL AND STRESS FACTORS

 |-----Development Phase------|--------------------------------------Environment--------------------------------------|-----------------Stress-----------------|
                              |---------------Average--------------|-----Cumulative-----|--------Count of days--------|          (0=Min, 1=Max Stress)         |
                         Time  Temp  Temp  Temp Solar Photop                Evapo    Pot TMIN TMIN TMAX TMAX TMAX RAIN|----Water----|---Nitrogen--|-Phosphorus-|
                         Span   Max   Min  Mean   Rad  [day]    CO2   Rain  Trans     ET   <    <    >    >    >    >   Photo         Photo         Photo
                         days    邂    邂    邂 MJ/m2     hr    ppm     mm     mm     mm  0邂  2邂 30邂 32邂 34邂  0mm  synth Growth  synth Growth  synth Growth
----------------------------------------------------------------------------------------------------------------------------------------------------------------
 Emergence-End Juvenile    16  32.9  18.5  25.7  17.2   0.00  364.9    9.0   15.3   76.9    0    0   15   12    3    1  0.090  0.227  0.002  0.004  0.000  0.000
 End Juvenil-Floral Init    4  33.0  18.7  25.8  17.8   0.00  364.9    8.0    7.3   19.2    0    0    3    3    1    1  0.000  0.144  0.001  0.003  0.000  0.000
 Floral Init-End Lf Grow   34  33.0  19.2  26.1  18.0   0.00  365.2   48.0   78.4  158.4    0    0   29   26    7    7  0.389  0.559  0.000  0.000  0.000  0.000
 End Lf Grth-Beg Grn Fil   10  33.4  19.4  26.4  18.6   0.00  365.5    0.0   16.8   48.1    0    0   10    7    1    0  0.687  0.784  0.000  0.000  0.000  0.000
 Grain Filling Phase       49  31.6  19.0  25.3  16.7  12.37  365.6  164.5   85.8  219.7    0    0   37   24    4   20  0.501  0.525  0.000  0.000  0.000  0.000


 Planting to Harvest      122  32.3  19.0  25.7  17.3   5.56  365.4  250.3  213.7  563.0    0    0  101   76   16   32  0.378  0.465  0.000  0.001  0.000  0.000
----------------------------------------------------------------------------------------------------------------------------------------------------------------


*Resource Productivity
 Growing season length: 122 days 

 Precipitation during growing season       250.3 mm[rain]
   Dry Matter Productivity                  2.10 kg[DM]/m3[rain]          =   21.0 kg[DM]/ha per mm[rain]
   Yield Productivity                       0.89 kg[grain yield]/m3[rain] =    8.9 kg[yield]/ha per mm[rain]

 Evapotranspiration during growing season  213.7 mm[ET]
   Dry Matter Productivity                  2.45 kg[DM]/m3[ET]            =   24.5 kg[DM]/ha per mm[ET]
   Yield Productivity                       1.04 kg[grain yield]/m3[ET]   =   10.4 kg[yield]/ha per mm[ET]

 Transpiration during growing season        96.7 mm[EP]
   Dry Matter Productivity                  5.42 kg[DM]/m3[EP]            =   54.2 kg[DM]/ha per mm[EP]
   Yield Productivity                       2.30 kg[grain yield]/m3[EP]   =   23.0 kg[yield]/ha per mm[EP]

 N applied during growing season            161. kg[N applied]/ha
   Dry Matter Productivity                  32.6 kg[DM]/kg[N applied]
   Yield Productivity                       13.8 kg[yield]/kg[N applied]

 N uptake during growing season               79 kg[N uptake]/ha
   Dry Matter Productivity                  66.4 kg[DM]/kg[N uptake]
   Yield Productivity                       28.2 kg[yield]/kg[N uptake]

--------------------------------------------------------------------------------------------------------------

                     Maize YIELD :     2228 kg/ha    [Dry weight] 

**************************************************************************************************************
